
     RDKit          3D

 30 32  0  0  0  0  0  0  0  0999 V2000
  -13.8755   15.6095  -24.9967 C   0  0  0  0  0  3  0  0  0  0  0  0
  -13.3153   14.2926  -24.5670 C   0  0  0  0  0  0  0  0  0  0  0  0
  -12.5113   14.4077  -23.2649 C   0  0  0  0  0  0  0  0  0  0  0  0
  -11.8035   13.0503  -23.3058 C   0  0  0  0  0  0  0  0  0  0  0  0
  -11.5964   12.8757  -24.7798 C   0  0  0  0  0  0  0  0  0  0  0  0
  -12.4340   13.7276  -25.4478 O   0  0  0  0  0  0  0  0  0  0  0  0
  -11.7790   11.4857  -25.1858 N   0  0  0  0  0  0  0  0  0  0  0  0
  -12.9464   10.8210  -25.2512 C   0  0  0  0  0  0  0  0  0  0  0  0
  -12.7289    9.5536  -25.6673 N   0  0  0  0  0  0  0  0  0  0  0  0
  -11.4270    9.3991  -25.8701 C   0  0  0  0  0  0  0  0  0  0  0  0
  -10.8300   10.6127  -25.5677 C   0  0  0  0  0  0  0  0  0  0  0  0
   -9.4951   10.6982  -25.7005 N   0  0  0  0  0  0  0  0  0  0  0  0
   -8.7573    9.6498  -26.1112 C   0  0  0  0  0  0  0  0  0  0  0  0
   -9.3618    8.4824  -26.3984 N   0  0  0  0  0  0  0  0  0  0  0  0
  -10.6922    8.3101  -26.2928 C   0  0  0  0  0  0  0  0  0  0  0  0
  -11.2440    7.0530  -26.6139 N   0  0  0  0  0  0  0  0  0  0  0  0
  -12.7209   12.1316  -22.7843 O   0  0  0  0  0  0  0  0  0  0  0  0
  -11.6085   15.4474  -23.4507 O   0  0  0  0  0  0  0  0  0  0  0  0
  -13.1965   16.2200  -25.6004 H   0  0  0  0  0  0  0  0  0  0  0  0
  -14.3263   16.1153  -24.1442 H   0  0  0  0  0  0  0  0  0  0  0  0
  -14.1909   13.6105  -24.3755 H   0  0  0  0  0  0  0  0  0  0  0  0
  -13.1526   14.5203  -22.3909 H   0  0  0  0  0  0  0  0  0  0  0  0
  -10.8683   13.0840  -22.7240 H   0  0  0  0  0  0  0  0  0  0  0  0
  -10.5499   13.1846  -25.0040 H   0  0  0  0  0  0  0  0  0  0  0  0
  -13.9328   11.2083  -25.0144 H   0  0  0  0  0  0  0  0  0  0  0  0
   -7.6878    9.7908  -26.1953 H   0  0  0  0  0  0  0  0  0  0  0  0
  -10.9783    6.2274  -26.0564 H   0  0  0  0  0  0  0  0  0  0  0  0
  -11.9072    6.9497  -27.3962 H   0  0  0  0  0  0  0  0  0  0  0  0
  -12.3206   11.4951  -22.1704 H   0  0  0  0  0  0  0  0  0  0  0  0
  -11.2134   15.3305  -24.3609 H   0  0  0  0  0  0  0  0  0  0  0  0
  1  2  1  0
  2  3  1  0
  3  4  1  0
  4  5  1  0
  5  6  1  0
  5  7  1  0
  7  8  1  0
  8  9  2  0
  9 10  1  0
 10 11  2  0
 11 12  1  0
 12 13  2  0
 13 14  1  0
 14 15  2  0
 15 16  1  0
  4 17  1  0
  3 18  1  0
  6  2  1  0
 11  7  1  0
 15 10  1  0
  1 19  1  0
  1 20  1  0
  2 21  1  0
  3 22  1  0
  4 23  1  0
  5 24  1  0
  8 25  1  0
 13 26  1  0
 16 27  1  0
 16 28  1  0
 17 29  1  0
 18 30  1  0
M  RAD  1   1   2
M  END
$$$$

     RDKit          3D

 30 32  0  0  0  0  0  0  0  0999 V2000
  -12.6820   13.8435  -21.7145 C   0  0  0  0  0  3  0  0  0  0  0  0
  -12.0961   13.9107  -23.1127 C   0  0  0  0  0  0  0  0  0  0  0  0
  -13.0201   14.6064  -24.0833 C   0  0  0  0  0  0  0  0  0  0  0  0
  -12.6393   13.8571  -25.3698 C   0  0  0  0  0  0  0  0  0  0  0  0
  -12.5060   12.4729  -24.7775 C   0  0  0  0  0  0  0  0  0  0  0  0
  -11.7986   12.6737  -23.6178 O   0  0  0  0  0  0  0  0  0  0  0  0
  -11.9463   11.5168  -25.6581 N   0  0  0  0  0  0  0  0  0  0  0  0
  -11.8267   11.6213  -26.9880 C   0  0  0  0  0  0  0  0  0  0  0  0
  -11.2389   10.4936  -27.4554 N   0  0  0  0  0  0  0  0  0  0  0  0
  -10.9905    9.6812  -26.4111 C   0  0  0  0  0  0  0  0  0  0  0  0
  -11.4366   10.3313  -25.2957 C   0  0  0  0  0  0  0  0  0  0  0  0
  -11.2955    9.7068  -24.1000 N   0  0  0  0  0  0  0  0  0  0  0  0
  -10.7486    8.5018  -23.9588 C   0  0  0  0  0  0  0  0  0  0  0  0
  -10.3113    7.8602  -25.0366 N   0  0  0  0  0  0  0  0  0  0  0  0
  -10.4216    8.4289  -26.2692 C   0  0  0  0  0  0  0  0  0  0  0  0
   -9.9612    7.7596  -27.4258 N   0  0  0  0  0  0  0  0  0  0  0  0
  -11.4275   14.3833  -25.7892 O   0  0  0  0  0  0  0  0  0  0  0  0
  -12.7801   15.9590  -24.1925 O   0  0  0  0  0  0  0  0  0  0  0  0
  -12.2836   14.7295  -21.1709 H   0  0  0  0  0  0  0  0  0  0  0  0
  -12.3867   12.9027  -21.2074 H   0  0  0  0  0  0  0  0  0  0  0  0
  -11.1426   14.5133  -23.1141 H   0  0  0  0  0  0  0  0  0  0  0  0
  -14.0867   14.3639  -23.8623 H   0  0  0  0  0  0  0  0  0  0  0  0
  -13.4388   13.9233  -26.1197 H   0  0  0  0  0  0  0  0  0  0  0  0
  -13.5275   12.1470  -24.4985 H   0  0  0  0  0  0  0  0  0  0  0  0
  -12.1299   12.4451  -27.6421 H   0  0  0  0  0  0  0  0  0  0  0  0
  -10.6611    8.0487  -22.9745 H   0  0  0  0  0  0  0  0  0  0  0  0
   -8.9766    7.8276  -27.7273 H   0  0  0  0  0  0  0  0  0  0  0  0
  -10.6206    7.1920  -27.9805 H   0  0  0  0  0  0  0  0  0  0  0  0
  -10.7919   13.7202  -26.1038 H   0  0  0  0  0  0  0  0  0  0  0  0
  -12.5726   16.3294  -23.2789 H   0  0  0  0  0  0  0  0  0  0  0  0
  1  2  1  0
  2  3  1  0
  3  4  1  0
  4  5  1  0
  5  6  1  0
  5  7  1  0
  7  8  1  0
  8  9  2  0
  9 10  1  0
 10 11  2  0
 11 12  1  0
 12 13  2  0
 13 14  1  0
 14 15  2  0
 15 16  1  0
  4 17  1  0
  3 18  1  0
  6  2  1  0
 11  7  1  0
 15 10  1  0
  1 19  1  0
  1 20  1  0
  2 21  1  0
  3 22  1  0
  4 23  1  0
  5 24  1  0
  8 25  1  0
 13 26  1  0
 16 27  1  0
 16 28  1  0
 17 29  1  0
 18 30  1  0
M  RAD  1   1   2
M  END
$$$$

     RDKit          3D

 30 32  0  0  0  0  0  0  0  0999 V2000
  -14.1482   14.4538  -22.4885 C   0  0  0  0  0  3  0  0  0  0  0  0
  -12.8779   13.9405  -23.1020 C   0  0  0  0  0  0  0  0  0  0  0  0
  -12.3723   14.8442  -24.2181 C   0  0  0  0  0  0  0  0  0  0  0  0
  -11.3593   13.9130  -24.8880 C   0  0  0  0  0  0  0  0  0  0  0  0
  -11.7792   12.5784  -24.3550 C   0  0  0  0  0  0  0  0  0  0  0  0
  -13.0589   12.7464  -23.7963 O   0  0  0  0  0  0  0  0  0  0  0  0
  -11.7581   11.5392  -25.3458 N   0  0  0  0  0  0  0  0  0  0  0  0
  -12.3640   11.4919  -26.5211 C   0  0  0  0  0  0  0  0  0  0  0  0
  -12.0898   10.3359  -27.1564 N   0  0  0  0  0  0  0  0  0  0  0  0
  -11.2776    9.6065  -26.3669 C   0  0  0  0  0  0  0  0  0  0  0  0
  -11.0721   10.3667  -25.2306 C   0  0  0  0  0  0  0  0  0  0  0  0
  -10.2813    9.8499  -24.2701 N   0  0  0  0  0  0  0  0  0  0  0  0
   -9.6919    8.6438  -24.3681 C   0  0  0  0  0  0  0  0  0  0  0  0
   -9.9223    7.9370  -25.4977 N   0  0  0  0  0  0  0  0  0  0  0  0
  -10.6849    8.3660  -26.4928 C   0  0  0  0  0  0  0  0  0  0  0  0
  -10.8830    7.5676  -27.6531 N   0  0  0  0  0  0  0  0  0  0  0  0
  -10.1014   14.3098  -24.4088 O   0  0  0  0  0  0  0  0  0  0  0  0
  -13.4048   15.1177  -25.0965 O   0  0  0  0  0  0  0  0  0  0  0  0
  -15.0633   14.0574  -22.9725 H   0  0  0  0  0  0  0  0  0  0  0  0
  -14.1305   14.2034  -21.3895 H   0  0  0  0  0  0  0  0  0  0  0  0
  -12.0615   13.7939  -22.3824 H   0  0  0  0  0  0  0  0  0  0  0  0
  -11.9041   15.7251  -23.7871 H   0  0  0  0  0  0  0  0  0  0  0  0
  -11.3967   13.9861  -25.9806 H   0  0  0  0  0  0  0  0  0  0  0  0
  -11.1081   12.3302  -23.5069 H   0  0  0  0  0  0  0  0  0  0  0  0
  -12.9978   12.2562  -26.9438 H   0  0  0  0  0  0  0  0  0  0  0  0
   -9.0649    8.2747  -23.5662 H   0  0  0  0  0  0  0  0  0  0  0  0
  -10.4760    7.8768  -28.5650 H   0  0  0  0  0  0  0  0  0  0  0  0
  -11.4269    6.6763  -27.6180 H   0  0  0  0  0  0  0  0  0  0  0  0
   -9.8875   13.6710  -23.6574 H   0  0  0  0  0  0  0  0  0  0  0  0
  -13.9249   14.2877  -25.2536 H   0  0  0  0  0  0  0  0  0  0  0  0
  1  2  1  0
  2  3  1  0
  3  4  1  0
  4  5  1  0
  5  6  1  0
  5  7  1  0
  7  8  1  0
  8  9  2  0
  9 10  1  0
 10 11  2  0
 11 12  1  0
 12 13  2  0
 13 14  1  0
 14 15  2  0
 15 16  1  0
  4 17  1  0
  3 18  1  0
  6  2  1  0
 11  7  1  0
 15 10  1  0
  1 19  1  0
  1 20  1  0
  2 21  1  0
  3 22  1  0
  4 23  1  0
  5 24  1  0
  8 25  1  0
 13 26  1  0
 16 27  1  0
 16 28  1  0
 17 29  1  0
 18 30  1  0
M  RAD  1   1   2
M  END
$$$$

     RDKit          3D

 30 32  0  0  0  0  0  0  0  0999 V2000
  -14.3564   14.7479  -24.9797 C   0  0  0  0  0  3  0  0  0  0  0  0
  -13.1775   13.8177  -24.8401 C   0  0  0  0  0  0  0  0  0  0  0  0
  -11.9255   14.5832  -24.3852 C   0  0  0  0  0  0  0  0  0  0  0  0
  -11.1033   13.3825  -23.8984 C   0  0  0  0  0  0  0  0  0  0  0  0
  -12.1283   12.3116  -23.6875 C   0  0  0  0  0  0  0  0  0  0  0  0
  -13.3490   12.9804  -23.7437 O   0  0  0  0  0  0  0  0  0  0  0  0
  -12.1301   11.2767  -24.6744 N   0  0  0  0  0  0  0  0  0  0  0  0
  -13.1785   10.8903  -25.4175 C   0  0  0  0  0  0  0  0  0  0  0  0
  -12.8005    9.8904  -26.2314 N   0  0  0  0  0  0  0  0  0  0  0  0
  -11.4985    9.6492  -25.9931 C   0  0  0  0  0  0  0  0  0  0  0  0
  -11.0645   10.5089  -25.0211 C   0  0  0  0  0  0  0  0  0  0  0  0
   -9.7801   10.4171  -24.6460 N   0  0  0  0  0  0  0  0  0  0  0  0
   -8.9620    9.5051  -25.2173 C   0  0  0  0  0  0  0  0  0  0  0  0
   -9.3930    8.6616  -26.1730 N   0  0  0  0  0  0  0  0  0  0  0  0
  -10.6859    8.7018  -26.6000 C   0  0  0  0  0  0  0  0  0  0  0  0
  -11.1680    7.8290  -27.6020 N   0  0  0  0  0  0  0  0  0  0  0  0
  -10.1203   13.0573  -24.8217 O   0  0  0  0  0  0  0  0  0  0  0  0
  -12.3058   15.3973  -23.3237 O   0  0  0  0  0  0  0  0  0  0  0  0
  -15.0956   14.2552  -25.6401 H   0  0  0  0  0  0  0  0  0  0  0  0
  -14.7569   14.9145  -23.9554 H   0  0  0  0  0  0  0  0  0  0  0  0
  -12.9039   13.3036  -25.7610 H   0  0  0  0  0  0  0  0  0  0  0  0
  -11.4445   15.1113  -25.2073 H   0  0  0  0  0  0  0  0  0  0  0  0
  -10.6110   13.6725  -22.9490 H   0  0  0  0  0  0  0  0  0  0  0  0
  -11.9418   11.9006  -22.6655 H   0  0  0  0  0  0  0  0  0  0  0  0
  -14.1736   11.3053  -25.3802 H   0  0  0  0  0  0  0  0  0  0  0  0
   -7.9152    9.4062  -24.9345 H   0  0  0  0  0  0  0  0  0  0  0  0
  -11.8635    8.1616  -28.2928 H   0  0  0  0  0  0  0  0  0  0  0  0
  -10.8339    6.8529  -27.6572 H   0  0  0  0  0  0  0  0  0  0  0  0
   -9.3145   13.5859  -24.5958 H   0  0  0  0  0  0  0  0  0  0  0  0
  -11.8307   16.2599  -23.3248 H   0  0  0  0  0  0  0  0  0  0  0  0
  1  2  1  0
  2  3  1  0
  3  4  1  0
  4  5  1  0
  5  6  1  0
  5  7  1  0
  7  8  1  0
  8  9  2  0
  9 10  1  0
 10 11  2  0
 11 12  1  0
 12 13  2  0
 13 14  1  0
 14 15  2  0
 15 16  1  0
  4 17  1  0
  3 18  1  0
  6  2  1  0
 11  7  1  0
 15 10  1  0
  1 19  1  0
  1 20  1  0
  2 21  1  0
  3 22  1  0
  4 23  1  0
  5 24  1  0
  8 25  1  0
 13 26  1  0
 16 27  1  0
 16 28  1  0
 17 29  1  0
 18 30  1  0
M  RAD  1   1   2
M  END
$$$$

     RDKit          3D

 30 32  0  0  0  0  0  0  0  0999 V2000
  -14.6840   14.7318  -23.5204 C   0  0  0  0  0  3  0  0  0  0  0  0
  -13.3334   14.0988  -23.3733 C   0  0  0  0  0  0  0  0  0  0  0  0
  -12.3170   14.6794  -24.3570 C   0  0  0  0  0  0  0  0  0  0  0  0
  -11.2686   13.5832  -24.3439 C   0  0  0  0  0  0  0  0  0  0  0  0
  -12.0800   12.3685  -24.0253 C   0  0  0  0  0  0  0  0  0  0  0  0
  -13.3869   12.7762  -23.8009 O   0  0  0  0  0  0  0  0  0  0  0  0
  -11.9991   11.3438  -25.0503 N   0  0  0  0  0  0  0  0  0  0  0  0
  -12.8287   11.1940  -26.1014 C   0  0  0  0  0  0  0  0  0  0  0  0
  -12.4313   10.1298  -26.8304 N   0  0  0  0  0  0  0  0  0  0  0  0
  -11.3409    9.5814  -26.2573 C   0  0  0  0  0  0  0  0  0  0  0  0
  -11.0759   10.3600  -25.1288 C   0  0  0  0  0  0  0  0  0  0  0  0
  -10.0259   10.0125  -24.3813 N   0  0  0  0  0  0  0  0  0  0  0  0
   -9.2174    8.9714  -24.6448 C   0  0  0  0  0  0  0  0  0  0  0  0
   -9.4828    8.2157  -25.7489 N   0  0  0  0  0  0  0  0  0  0  0  0
  -10.5244    8.5079  -26.5476 C   0  0  0  0  0  0  0  0  0  0  0  0
  -10.7766    7.7041  -27.6897 N   0  0  0  0  0  0  0  0  0  0  0  0
  -10.5949   13.4996  -25.5580 O   0  0  0  0  0  0  0  0  0  0  0  0
  -11.7592   15.8499  -23.8968 O   0  0  0  0  0  0  0  0  0  0  0  0
  -14.8473   15.5266  -22.7612 H   0  0  0  0  0  0  0  0  0  0  0  0
  -15.4449   13.9421  -23.2968 H   0  0  0  0  0  0  0  0  0  0  0  0
  -12.8990   14.2053  -22.3608 H   0  0  0  0  0  0  0  0  0  0  0  0
  -12.7836   14.7772  -25.3584 H   0  0  0  0  0  0  0  0  0  0  0  0
  -10.5589   13.8488  -23.5094 H   0  0  0  0  0  0  0  0  0  0  0  0
  -11.7056   11.9646  -23.0391 H   0  0  0  0  0  0  0  0  0  0  0  0
  -13.6782   11.8490  -26.3007 H   0  0  0  0  0  0  0  0  0  0  0  0
   -8.3713    8.7385  -23.9912 H   0  0  0  0  0  0  0  0  0  0  0  0
  -11.3657    6.8353  -27.5784 H   0  0  0  0  0  0  0  0  0  0  0  0
  -10.4146    7.9163  -28.6448 H   0  0  0  0  0  0  0  0  0  0  0  0
   -9.7938   14.1064  -25.4716 H   0  0  0  0  0  0  0  0  0  0  0  0
  -12.3862   16.4437  -23.4513 H   0  0  0  0  0  0  0  0  0  0  0  0
  1  2  1  0
  2  3  1  0
  3  4  1  0
  4  5  1  0
  5  6  1  0
  5  7  1  0
  7  8  1  0
  8  9  2  0
  9 10  1  0
 10 11  2  0
 11 12  1  0
 12 13  2  0
 13 14  1  0
 14 15  2  0
 15 16  1  0
  4 17  1  0
  3 18  1  0
  6  2  1  0
 11  7  1  0
 15 10  1  0
  1 19  1  0
  1 20  1  0
  2 21  1  0
  3 22  1  0
  4 23  1  0
  5 24  1  0
  8 25  1  0
 13 26  1  0
 16 27  1  0
 16 28  1  0
 17 29  1  0
 18 30  1  0
M  RAD  1   1   2
M  END
$$$$

     RDKit          3D

 30 32  0  0  0  0  0  0  0  0999 V2000
  -11.3427   14.5873  -22.2041 C   0  0  0  0  0  3  0  0  0  0  0  0
  -11.5033   14.4656  -23.6825 C   0  0  0  0  0  0  0  0  0  0  0  0
  -12.8866   14.7187  -24.1826 C   0  0  0  0  0  0  0  0  0  0  0  0
  -13.3563   13.3607  -24.6978 C   0  0  0  0  0  0  0  0  0  0  0  0
  -12.2271   12.4535  -24.3433 C   0  0  0  0  0  0  0  0  0  0  0  0
  -11.1119   13.2185  -24.0768 O   0  0  0  0  0  0  0  0  0  0  0  0
  -11.8832   11.5252  -25.3973 N   0  0  0  0  0  0  0  0  0  0  0  0
  -12.1172   11.6058  -26.7174 C   0  0  0  0  0  0  0  0  0  0  0  0
  -11.6170   10.5020  -27.3410 N   0  0  0  0  0  0  0  0  0  0  0  0
  -11.0640    9.7179  -26.4168 C   0  0  0  0  0  0  0  0  0  0  0  0
  -11.2323   10.3591  -25.2092 C   0  0  0  0  0  0  0  0  0  0  0  0
  -10.7380    9.7292  -24.1204 N   0  0  0  0  0  0  0  0  0  0  0  0
  -10.1110    8.5407  -24.1804 C   0  0  0  0  0  0  0  0  0  0  0  0
   -9.9408    7.9064  -25.3485 N   0  0  0  0  0  0  0  0  0  0  0  0
  -10.4233    8.5037  -26.4766 C   0  0  0  0  0  0  0  0  0  0  0  0
  -10.2208    7.7956  -27.6950 N   0  0  0  0  0  0  0  0  0  0  0  0
  -14.4759   13.0023  -23.9134 O   0  0  0  0  0  0  0  0  0  0  0  0
  -12.8756   15.6159  -25.2530 O   0  0  0  0  0  0  0  0  0  0  0  0
  -12.1105   14.0585  -21.6138 H   0  0  0  0  0  0  0  0  0  0  0  0
  -11.1179   15.5956  -21.8418 H   0  0  0  0  0  0  0  0  0  0  0  0
  -10.8203   15.2109  -24.1559 H   0  0  0  0  0  0  0  0  0  0  0  0
  -13.5046   15.0898  -23.3566 H   0  0  0  0  0  0  0  0  0  0  0  0
  -13.6381   13.3824  -25.7459 H   0  0  0  0  0  0  0  0  0  0  0  0
  -12.4742   11.8248  -23.4423 H   0  0  0  0  0  0  0  0  0  0  0  0
  -12.6225   12.4132  -27.2258 H   0  0  0  0  0  0  0  0  0  0  0  0
   -9.7442    8.1058  -23.2520 H   0  0  0  0  0  0  0  0  0  0  0  0
   -9.9437    8.3020  -28.5801 H   0  0  0  0  0  0  0  0  0  0  0  0
  -10.3542    6.7648  -27.6861 H   0  0  0  0  0  0  0  0  0  0  0  0
  -14.2089   12.4625  -23.1326 H   0  0  0  0  0  0  0  0  0  0  0  0
  -11.9875   15.9512  -25.4735 H   0  0  0  0  0  0  0  0  0  0  0  0
  1  2  1  0
  2  3  1  0
  3  4  1  0
  4  5  1  0
  5  6  1  0
  5  7  1  0
  7  8  1  0
  8  9  2  0
  9 10  1  0
 10 11  2  0
 11 12  1  0
 12 13  2  0
 13 14  1  0
 14 15  2  0
 15 16  1  0
  4 17  1  0
  3 18  1  0
  6  2  1  0
 11  7  1  0
 15 10  1  0
  1 19  1  0
  1 20  1  0
  2 21  1  0
  3 22  1  0
  4 23  1  0
  5 24  1  0
  8 25  1  0
 13 26  1  0
 16 27  1  0
 16 28  1  0
 17 29  1  0
 18 30  1  0
M  RAD  1   1   2
M  END
$$$$

     RDKit          3D

 30 32  0  0  0  0  0  0  0  0999 V2000
  -13.9945   15.3657  -24.4169 C   0  0  0  0  0  3  0  0  0  0  0  0
  -13.4352   14.1670  -23.6878 C   0  0  0  0  0  0  0  0  0  0  0  0
  -11.9779   14.3709  -23.3013 C   0  0  0  0  0  0  0  0  0  0  0  0
  -11.3263   13.0937  -23.8052 C   0  0  0  0  0  0  0  0  0  0  0  0
  -12.5401   12.2086  -24.0160 C   0  0  0  0  0  0  0  0  0  0  0  0
  -13.4366   13.0951  -24.5927 O   0  0  0  0  0  0  0  0  0  0  0  0
  -12.2953   11.1393  -24.9359 N   0  0  0  0  0  0  0  0  0  0  0  0
  -13.2566   10.6593  -25.7791 C   0  0  0  0  0  0  0  0  0  0  0  0
  -12.7197    9.6729  -26.5027 N   0  0  0  0  0  0  0  0  0  0  0  0
  -11.4296    9.4890  -26.1596 C   0  0  0  0  0  0  0  0  0  0  0  0
  -11.1879   10.4254  -25.1709 C   0  0  0  0  0  0  0  0  0  0  0  0
   -9.9614   10.4725  -24.6333 N   0  0  0  0  0  0  0  0  0  0  0  0
   -8.9799    9.6287  -25.0426 C   0  0  0  0  0  0  0  0  0  0  0  0
   -9.2381    8.7154  -26.0160 N   0  0  0  0  0  0  0  0  0  0  0  0
  -10.4392    8.6201  -26.5891 C   0  0  0  0  0  0  0  0  0  0  0  0
  -10.7232    7.6764  -27.6019 N   0  0  0  0  0  0  0  0  0  0  0  0
  -10.6700   13.3161  -25.0189 O   0  0  0  0  0  0  0  0  0  0  0  0
  -11.5156   15.4918  -23.9863 O   0  0  0  0  0  0  0  0  0  0  0  0
  -14.6843   15.0013  -25.2294 H   0  0  0  0  0  0  0  0  0  0  0  0
  -14.6300   16.0066  -23.7680 H   0  0  0  0  0  0  0  0  0  0  0  0
  -14.0589   13.8581  -22.8275 H   0  0  0  0  0  0  0  0  0  0  0  0
  -11.8774   14.4925  -22.2108 H   0  0  0  0  0  0  0  0  0  0  0  0
  -10.6481   12.7221  -23.0342 H   0  0  0  0  0  0  0  0  0  0  0  0
  -12.8979   11.8746  -23.0229 H   0  0  0  0  0  0  0  0  0  0  0  0
  -14.2764   11.0179  -25.8473 H   0  0  0  0  0  0  0  0  0  0  0  0
   -8.0073    9.7083  -24.5761 H   0  0  0  0  0  0  0  0  0  0  0  0
  -11.5143    7.0219  -27.4478 H   0  0  0  0  0  0  0  0  0  0  0  0
  -10.1872    7.6055  -28.4814 H   0  0  0  0  0  0  0  0  0  0  0  0
  -11.1222   14.0754  -25.4917 H   0  0  0  0  0  0  0  0  0  0  0  0
  -11.7627   16.2846  -23.4715 H   0  0  0  0  0  0  0  0  0  0  0  0
  1  2  1  0
  2  3  1  0
  3  4  1  0
  4  5  1  0
  5  6  1  0
  5  7  1  0
  7  8  1  0
  8  9  2  0
  9 10  1  0
 10 11  2  0
 11 12  1  0
 12 13  2  0
 13 14  1  0
 14 15  2  0
 15 16  1  0
  4 17  1  0
  3 18  1  0
  6  2  1  0
 11  7  1  0
 15 10  1  0
  1 19  1  0
  1 20  1  0
  2 21  1  0
  3 22  1  0
  4 23  1  0
  5 24  1  0
  8 25  1  0
 13 26  1  0
 16 27  1  0
 16 28  1  0
 17 29  1  0
 18 30  1  0
M  RAD  1   1   2
M  END
$$$$

     RDKit          3D

 30 32  0  0  0  0  0  0  0  0999 V2000
  -12.6934   15.6967  -25.3931 C   0  0  0  0  0  3  0  0  0  0  0  0
  -11.9924   14.5745  -24.6961 C   0  0  0  0  0  0  0  0  0  0  0  0
  -12.6132   14.2294  -23.3603 C   0  0  0  0  0  0  0  0  0  0  0  0
  -12.5209   12.7084  -23.4103 C   0  0  0  0  0  0  0  0  0  0  0  0
  -12.8652   12.5248  -24.8897 C   0  0  0  0  0  0  0  0  0  0  0  0
  -12.0121   13.4478  -25.4755 O   0  0  0  0  0  0  0  0  0  0  0  0
  -12.5956   11.1944  -25.3295 N   0  0  0  0  0  0  0  0  0  0  0  0
  -13.5271   10.2632  -25.5990 C   0  0  0  0  0  0  0  0  0  0  0  0
  -12.8817    9.1431  -25.9836 N   0  0  0  0  0  0  0  0  0  0  0  0
  -11.5525    9.3400  -25.9655 C   0  0  0  0  0  0  0  0  0  0  0  0
  -11.3843   10.6590  -25.5444 C   0  0  0  0  0  0  0  0  0  0  0  0
  -10.1477   11.1707  -25.4211 N   0  0  0  0  0  0  0  0  0  0  0  0
   -9.0482   10.4501  -25.6921 C   0  0  0  0  0  0  0  0  0  0  0  0
   -9.1997    9.1932  -26.0937 N   0  0  0  0  0  0  0  0  0  0  0  0
  -10.4184    8.6099  -26.2407 C   0  0  0  0  0  0  0  0  0  0  0  0
  -10.5620    7.2707  -26.6692 N   0  0  0  0  0  0  0  0  0  0  0  0
  -11.1874   12.3689  -23.1925 O   0  0  0  0  0  0  0  0  0  0  0  0
  -11.9252   14.7632  -22.2999 O   0  0  0  0  0  0  0  0  0  0  0  0
  -13.3119   16.3208  -24.7227 H   0  0  0  0  0  0  0  0  0  0  0  0
  -11.9763   16.2983  -25.9828 H   0  0  0  0  0  0  0  0  0  0  0  0
  -10.9306   14.8998  -24.5190 H   0  0  0  0  0  0  0  0  0  0  0  0
  -13.7083   14.4933  -23.3544 H   0  0  0  0  0  0  0  0  0  0  0  0
  -13.2226   12.2121  -22.7470 H   0  0  0  0  0  0  0  0  0  0  0  0
  -13.9327   12.8056  -24.9966 H   0  0  0  0  0  0  0  0  0  0  0  0
  -14.5939   10.4176  -25.5124 H   0  0  0  0  0  0  0  0  0  0  0  0
   -8.0924   10.9418  -25.5657 H   0  0  0  0  0  0  0  0  0  0  0  0
  -10.5896    6.9748  -27.6662 H   0  0  0  0  0  0  0  0  0  0  0  0
  -10.6462    6.5274  -25.9460 H   0  0  0  0  0  0  0  0  0  0  0  0
  -10.6837   13.1275  -22.7910 H   0  0  0  0  0  0  0  0  0  0  0  0
  -11.4630   15.6078  -22.5046 H   0  0  0  0  0  0  0  0  0  0  0  0
  1  2  1  0
  2  3  1  0
  3  4  1  0
  4  5  1  0
  5  6  1  0
  5  7  1  0
  7  8  1  0
  8  9  2  0
  9 10  1  0
 10 11  2  0
 11 12  1  0
 12 13  2  0
 13 14  1  0
 14 15  2  0
 15 16  1  0
  4 17  1  0
  3 18  1  0
  6  2  1  0
 11  7  1  0
 15 10  1  0
  1 19  1  0
  1 20  1  0
  2 21  1  0
  3 22  1  0
  4 23  1  0
  5 24  1  0
  8 25  1  0
 13 26  1  0
 16 27  1  0
 16 28  1  0
 17 29  1  0
 18 30  1  0
M  RAD  1   1   2
M  END
$$$$

     RDKit          3D

 30 32  0  0  0  0  0  0  0  0999 V2000
  -10.4677   15.2508  -24.5323 C   0  0  0  0  0  3  0  0  0  0  0  0
  -11.4712   14.3956  -23.7956 C   0  0  0  0  0  0  0  0  0  0  0  0
  -12.8394   14.4370  -24.4500 C   0  0  0  0  0  0  0  0  0  0  0  0
  -13.3968   13.1225  -23.9445 C   0  0  0  0  0  0  0  0  0  0  0  0
  -12.1843   12.2757  -23.9028 C   0  0  0  0  0  0  0  0  0  0  0  0
  -11.1012   13.0878  -23.6876 O   0  0  0  0  0  0  0  0  0  0  0  0
  -11.9863   11.4476  -25.0572 N   0  0  0  0  0  0  0  0  0  0  0  0
  -12.4920   11.5343  -26.2944 C   0  0  0  0  0  0  0  0  0  0  0  0
  -12.0121   10.5130  -27.0573 N   0  0  0  0  0  0  0  0  0  0  0  0
  -11.2033    9.7771  -26.3105 C   0  0  0  0  0  0  0  0  0  0  0  0
  -11.1875   10.3648  -25.0540 C   0  0  0  0  0  0  0  0  0  0  0  0
  -10.4184    9.7726  -24.1220 N   0  0  0  0  0  0  0  0  0  0  0  0
   -9.6882    8.6730  -24.3454 C   0  0  0  0  0  0  0  0  0  0  0  0
   -9.7309    8.1331  -25.5786 N   0  0  0  0  0  0  0  0  0  0  0  0
  -10.4660    8.6440  -26.5831 C   0  0  0  0  0  0  0  0  0  0  0  0
  -10.4592    8.0149  -27.8617 N   0  0  0  0  0  0  0  0  0  0  0  0
  -14.4387   12.6432  -24.6889 O   0  0  0  0  0  0  0  0  0  0  0  0
  -13.5838   15.5207  -23.9902 O   0  0  0  0  0  0  0  0  0  0  0  0
   -9.8046   15.7327  -23.7751 H   0  0  0  0  0  0  0  0  0  0  0  0
  -11.0574   16.0943  -24.9975 H   0  0  0  0  0  0  0  0  0  0  0  0
  -11.6222   14.8078  -22.7579 H   0  0  0  0  0  0  0  0  0  0  0  0
  -12.7678   14.3997  -25.5409 H   0  0  0  0  0  0  0  0  0  0  0  0
  -13.7198   13.3258  -22.8812 H   0  0  0  0  0  0  0  0  0  0  0  0
  -12.2687   11.6056  -22.9968 H   0  0  0  0  0  0  0  0  0  0  0  0
  -13.1666   12.2931  -26.6183 H   0  0  0  0  0  0  0  0  0  0  0  0
   -9.0700    8.2147  -23.5596 H   0  0  0  0  0  0  0  0  0  0  0  0
  -11.2141    7.3600  -28.1689 H   0  0  0  0  0  0  0  0  0  0  0  0
   -9.6874    8.1905  -28.5441 H   0  0  0  0  0  0  0  0  0  0  0  0
  -14.9440   13.4326  -25.0495 H   0  0  0  0  0  0  0  0  0  0  0  0
  -13.9345   16.0534  -24.7707 H   0  0  0  0  0  0  0  0  0  0  0  0
  1  2  1  0
  2  3  1  0
  3  4  1  0
  4  5  1  0
  5  6  1  0
  5  7  1  0
  7  8  1  0
  8  9  2  0
  9 10  1  0
 10 11  2  0
 11 12  1  0
 12 13  2  0
 13 14  1  0
 14 15  2  0
 15 16  1  0
  4 17  1  0
  3 18  1  0
  6  2  1  0
 11  7  1  0
 15 10  1  0
  1 19  1  0
  1 20  1  0
  2 21  1  0
  3 22  1  0
  4 23  1  0
  5 24  1  0
  8 25  1  0
 13 26  1  0
 16 27  1  0
 16 28  1  0
 17 29  1  0
 18 30  1  0
M  RAD  1   1   2
M  END
$$$$

     RDKit          3D

 30 32  0  0  0  0  0  0  0  0999 V2000
  -12.7220   14.2953  -26.4993 C   0  0  0  0  0  3  0  0  0  0  0  0
  -12.0752   14.5176  -25.1753 C   0  0  0  0  0  0  0  0  0  0  0  0
  -13.0050   14.4675  -24.0086 C   0  0  0  0  0  0  0  0  0  0  0  0
  -12.6708   13.1595  -23.3338 C   0  0  0  0  0  0  0  0  0  0  0  0
  -11.5604   12.5974  -24.1504 C   0  0  0  0  0  0  0  0  0  0  0  0
  -11.0845   13.5833  -24.9871 O   0  0  0  0  0  0  0  0  0  0  0  0
  -11.8895   11.3714  -24.8334 N   0  0  0  0  0  0  0  0  0  0  0  0
  -13.0982   10.8704  -25.1295 C   0  0  0  0  0  0  0  0  0  0  0  0
  -12.9144    9.7109  -25.7675 N   0  0  0  0  0  0  0  0  0  0  0  0
  -11.5795    9.4645  -25.8826 C   0  0  0  0  0  0  0  0  0  0  0  0
  -10.9299   10.5188  -25.2895 C   0  0  0  0  0  0  0  0  0  0  0  0
   -9.5928   10.4789  -25.2904 N   0  0  0  0  0  0  0  0  0  0  0  0
   -8.9161    9.4695  -25.8377 C   0  0  0  0  0  0  0  0  0  0  0  0
   -9.5456    8.4362  -26.4189 N   0  0  0  0  0  0  0  0  0  0  0  0
  -10.9047    8.4098  -26.4550 C   0  0  0  0  0  0  0  0  0  0  0  0
  -11.6256    7.3539  -27.0501 N   0  0  0  0  0  0  0  0  0  0  0  0
  -12.3039   13.3501  -21.9953 O   0  0  0  0  0  0  0  0  0  0  0  0
  -12.7088   15.5530  -23.1519 O   0  0  0  0  0  0  0  0  0  0  0  0
  -13.6125   14.8907  -26.6971 H   0  0  0  0  0  0  0  0  0  0  0  0
  -12.7789   13.2400  -26.7764 H   0  0  0  0  0  0  0  0  0  0  0  0
  -11.5666   15.5248  -25.2235 H   0  0  0  0  0  0  0  0  0  0  0  0
  -14.0739   14.5240  -24.2930 H   0  0  0  0  0  0  0  0  0  0  0  0
  -13.5590   12.4945  -23.3129 H   0  0  0  0  0  0  0  0  0  0  0  0
  -10.7213   12.3469  -23.4379 H   0  0  0  0  0  0  0  0  0  0  0  0
  -14.0475   11.3111  -24.9008 H   0  0  0  0  0  0  0  0  0  0  0  0
   -7.8177    9.5294  -25.7872 H   0  0  0  0  0  0  0  0  0  0  0  0
  -11.1797    6.7796  -27.7779 H   0  0  0  0  0  0  0  0  0  0  0  0
  -12.5934    7.1602  -26.7564 H   0  0  0  0  0  0  0  0  0  0  0  0
  -13.1569   13.4876  -21.4960 H   0  0  0  0  0  0  0  0  0  0  0  0
  -13.1303   15.3772  -22.2725 H   0  0  0  0  0  0  0  0  0  0  0  0
  1  2  1  0
  2  3  1  0
  3  4  1  0
  4  5  1  0
  5  6  1  0
  5  7  1  0
  7  8  1  0
  8  9  2  0
  9 10  1  0
 10 11  2  0
 11 12  1  0
 12 13  2  0
 13 14  1  0
 14 15  2  0
 15 16  1  0
  4 17  1  0
  3 18  1  0
  6  2  1  0
 11  7  1  0
 15 10  1  0
  1 19  1  0
  1 20  1  0
  2 21  1  0
  3 22  1  0
  4 23  1  0
  5 24  1  0
  8 25  1  0
 13 26  1  0
 16 27  1  0
 16 28  1  0
 17 29  1  0
 18 30  1  0
M  RAD  1   1   2
M  END
$$$$

     RDKit          3D

 30 32  0  0  0  0  0  0  0  0999 V2000
  -14.4829   13.8076  -23.5453 C   0  0  0  0  0  3  0  0  0  0  0  0
  -13.2160   13.2070  -24.1103 C   0  0  0  0  0  0  0  0  0  0  0  0
  -11.9870   13.6355  -23.3798 C   0  0  0  0  0  0  0  0  0  0  0  0
  -10.9444   13.6593  -24.4740 C   0  0  0  0  0  0  0  0  0  0  0  0
  -11.7276   13.2893  -25.6836 C   0  0  0  0  0  0  0  0  0  0  0  0
  -13.0273   13.7598  -25.3776 O   0  0  0  0  0  0  0  0  0  0  0  0
  -11.8597   11.8691  -25.9190 N   0  0  0  0  0  0  0  0  0  0  0  0
  -12.9188   11.3376  -26.5550 C   0  0  0  0  0  0  0  0  0  0  0  0
  -12.7530   10.0071  -26.6199 N   0  0  0  0  0  0  0  0  0  0  0  0
  -11.5907    9.6960  -26.0261 C   0  0  0  0  0  0  0  0  0  0  0  0
  -11.0434   10.8666  -25.5932 C   0  0  0  0  0  0  0  0  0  0  0  0
   -9.8650   10.8271  -24.9595 N   0  0  0  0  0  0  0  0  0  0  0  0
   -9.2461    9.6548  -24.7608 C   0  0  0  0  0  0  0  0  0  0  0  0
   -9.7860    8.4963  -25.1882 N   0  0  0  0  0  0  0  0  0  0  0  0
  -10.9724    8.4668  -25.8343 C   0  0  0  0  0  0  0  0  0  0  0  0
  -11.5491    7.2480  -26.2887 N   0  0  0  0  0  0  0  0  0  0  0  0
  -10.5186   14.9957  -24.6024 O   0  0  0  0  0  0  0  0  0  0  0  0
  -11.6392   12.7844  -22.3384 O   0  0  0  0  0  0  0  0  0  0  0  0
  -14.7332   13.4231  -22.5384 H   0  0  0  0  0  0  0  0  0  0  0  0
  -14.3732   14.9080  -23.5848 H   0  0  0  0  0  0  0  0  0  0  0  0
  -13.3590   12.1120  -24.1406 H   0  0  0  0  0  0  0  0  0  0  0  0
  -12.1663   14.6308  -22.9504 H   0  0  0  0  0  0  0  0  0  0  0  0
  -10.0532   13.0787  -24.2608 H   0  0  0  0  0  0  0  0  0  0  0  0
  -11.4126   13.8340  -26.5965 H   0  0  0  0  0  0  0  0  0  0  0  0
  -13.7855   11.8879  -26.9608 H   0  0  0  0  0  0  0  0  0  0  0  0
   -8.2875    9.5929  -24.2487 H   0  0  0  0  0  0  0  0  0  0  0  0
  -12.5872    7.1931  -26.3311 H   0  0  0  0  0  0  0  0  0  0  0  0
  -10.9331    6.4629  -26.5599 H   0  0  0  0  0  0  0  0  0  0  0  0
  -11.2164   15.4989  -25.0897 H   0  0  0  0  0  0  0  0  0  0  0  0
  -12.0676   11.8954  -22.4151 H   0  0  0  0  0  0  0  0  0  0  0  0
  1  2  1  0
  2  3  1  0
  3  4  1  0
  4  5  1  0
  5  6  1  0
  5  7  1  0
  7  8  1  0
  8  9  2  0
  9 10  1  0
 10 11  2  0
 11 12  1  0
 12 13  2  0
 13 14  1  0
 14 15  2  0
 15 16  1  0
  4 17  1  0
  3 18  1  0
  6  2  1  0
 11  7  1  0
 15 10  1  0
  1 19  1  0
  1 20  1  0
  2 21  1  0
  3 22  1  0
  4 23  1  0
  5 24  1  0
  8 25  1  0
 13 26  1  0
 16 27  1  0
 16 28  1  0
 17 29  1  0
 18 30  1  0
M  RAD  1   1   2
M  END
$$$$

     RDKit          3D

 30 32  0  0  0  0  0  0  0  0999 V2000
  -14.2073   15.2810  -24.3805 C   0  0  0  0  0  3  0  0  0  0  0  0
  -13.4609   14.1810  -23.6977 C   0  0  0  0  0  0  0  0  0  0  0  0
  -11.9951   14.5338  -23.6364 C   0  0  0  0  0  0  0  0  0  0  0  0
  -11.3551   13.3233  -24.3288 C   0  0  0  0  0  0  0  0  0  0  0  0
  -12.3763   12.2583  -24.0595 C   0  0  0  0  0  0  0  0  0  0  0  0
  -13.5776   12.9568  -24.3079 O   0  0  0  0  0  0  0  0  0  0  0  0
  -12.2916   11.1367  -24.9535 N   0  0  0  0  0  0  0  0  0  0  0  0
  -13.2752   10.5679  -25.6586 C   0  0  0  0  0  0  0  0  0  0  0  0
  -12.7878    9.5459  -26.3726 N   0  0  0  0  0  0  0  0  0  0  0  0
  -11.4534    9.4267  -26.1428 C   0  0  0  0  0  0  0  0  0  0  0  0
  -11.1699   10.4423  -25.2449 C   0  0  0  0  0  0  0  0  0  0  0  0
   -9.8903   10.5892  -24.8114 N   0  0  0  0  0  0  0  0  0  0  0  0
   -8.9486    9.7409  -25.2724 C   0  0  0  0  0  0  0  0  0  0  0  0
   -9.2277    8.7565  -26.1437 N   0  0  0  0  0  0  0  0  0  0  0  0
  -10.4826    8.5819  -26.5938 C   0  0  0  0  0  0  0  0  0  0  0  0
  -10.8418    7.5635  -27.5125 N   0  0  0  0  0  0  0  0  0  0  0  0
  -10.1118   13.0556  -23.7932 O   0  0  0  0  0  0  0  0  0  0  0  0
  -11.6738   15.6666  -24.3456 O   0  0  0  0  0  0  0  0  0  0  0  0
  -14.3937   15.1290  -25.4432 H   0  0  0  0  0  0  0  0  0  0  0  0
  -15.0167   15.7225  -23.8037 H   0  0  0  0  0  0  0  0  0  0  0  0
  -13.8960   14.0747  -22.6608 H   0  0  0  0  0  0  0  0  0  0  0  0
  -11.6961   14.5713  -22.5648 H   0  0  0  0  0  0  0  0  0  0  0  0
  -11.2669   13.5216  -25.4057 H   0  0  0  0  0  0  0  0  0  0  0  0
  -12.3865   11.9915  -23.0005 H   0  0  0  0  0  0  0  0  0  0  0  0
  -14.2977   10.8837  -25.6517 H   0  0  0  0  0  0  0  0  0  0  0  0
   -7.9052    9.8235  -24.9493 H   0  0  0  0  0  0  0  0  0  0  0  0
  -10.6384    7.7266  -28.5198 H   0  0  0  0  0  0  0  0  0  0  0  0
  -11.2945    6.6670  -27.2411 H   0  0  0  0  0  0  0  0  0  0  0  0
  -10.1382   12.6832  -22.8900 H   0  0  0  0  0  0  0  0  0  0  0  0
  -11.4186   16.3712  -23.6725 H   0  0  0  0  0  0  0  0  0  0  0  0
  1  2  1  0
  2  3  1  0
  3  4  1  0
  4  5  1  0
  5  6  1  0
  5  7  1  0
  7  8  1  0
  8  9  2  0
  9 10  1  0
 10 11  2  0
 11 12  1  0
 12 13  2  0
 13 14  1  0
 14 15  2  0
 15 16  1  0
  4 17  1  0
  3 18  1  0
  6  2  1  0
 11  7  1  0
 15 10  1  0
  1 19  1  0
  1 20  1  0
  2 21  1  0
  3 22  1  0
  4 23  1  0
  5 24  1  0
  8 25  1  0
 13 26  1  0
 16 27  1  0
 16 28  1  0
 17 29  1  0
 18 30  1  0
M  RAD  1   1   2
M  END
$$$$

     RDKit          3D

 30 32  0  0  0  0  0  0  0  0999 V2000
  -14.4972   13.1639  -23.4057 C   0  0  0  0  0  3  0  0  0  0  0  0
  -13.0604   13.5907  -23.2810 C   0  0  0  0  0  0  0  0  0  0  0  0
  -12.7457   14.4633  -24.4761 C   0  0  0  0  0  0  0  0  0  0  0  0
  -11.3065   14.1371  -24.6874 C   0  0  0  0  0  0  0  0  0  0  0  0
  -11.2098   12.7357  -24.2152 C   0  0  0  0  0  0  0  0  0  0  0  0
  -12.1622   12.5754  -23.2420 O   0  0  0  0  0  0  0  0  0  0  0  0
  -11.3789   11.7507  -25.2670 N   0  0  0  0  0  0  0  0  0  0  0  0
  -11.9093   11.8594  -26.4928 C   0  0  0  0  0  0  0  0  0  0  0  0
  -11.8426   10.6592  -27.1091 N   0  0  0  0  0  0  0  0  0  0  0  0
  -11.2681    9.7657  -26.2853 C   0  0  0  0  0  0  0  0  0  0  0  0
  -10.9860   10.4685  -25.1394 C   0  0  0  0  0  0  0  0  0  0  0  0
  -10.3974    9.8106  -24.1280 N   0  0  0  0  0  0  0  0  0  0  0  0
  -10.0851    8.5101  -24.2093 C   0  0  0  0  0  0  0  0  0  0  0  0
  -10.3684    7.8430  -25.3349 N   0  0  0  0  0  0  0  0  0  0  0  0
  -10.9513    8.4317  -26.3773 C   0  0  0  0  0  0  0  0  0  0  0  0
  -11.2491    7.6941  -27.5840 N   0  0  0  0  0  0  0  0  0  0  0  0
  -10.8446   14.3625  -25.9658 O   0  0  0  0  0  0  0  0  0  0  0  0
  -12.8645   15.7863  -24.0556 O   0  0  0  0  0  0  0  0  0  0  0  0
  -14.9190   12.7896  -22.4412 H   0  0  0  0  0  0  0  0  0  0  0  0
  -15.0776   14.0613  -23.7080 H   0  0  0  0  0  0  0  0  0  0  0  0
  -12.9699   14.1751  -22.3278 H   0  0  0  0  0  0  0  0  0  0  0  0
  -13.4055   14.2597  -25.3290 H   0  0  0  0  0  0  0  0  0  0  0  0
  -10.7220   14.7728  -23.9570 H   0  0  0  0  0  0  0  0  0  0  0  0
  -10.2151   12.5412  -23.7113 H   0  0  0  0  0  0  0  0  0  0  0  0
  -12.3122   12.7901  -26.8733 H   0  0  0  0  0  0  0  0  0  0  0  0
   -9.6100    8.0581  -23.3416 H   0  0  0  0  0  0  0  0  0  0  0  0
  -11.8462    8.1208  -28.2998 H   0  0  0  0  0  0  0  0  0  0  0  0
  -10.8474    6.7590  -27.6820 H   0  0  0  0  0  0  0  0  0  0  0  0
  -10.5672   15.3256  -26.0051 H   0  0  0  0  0  0  0  0  0  0  0  0
  -13.7298   16.1881  -24.2806 H   0  0  0  0  0  0  0  0  0  0  0  0
  1  2  1  0
  2  3  1  0
  3  4  1  0
  4  5  1  0
  5  6  1  0
  5  7  1  0
  7  8  1  0
  8  9  2  0
  9 10  1  0
 10 11  2  0
 11 12  1  0
 12 13  2  0
 13 14  1  0
 14 15  2  0
 15 16  1  0
  4 17  1  0
  3 18  1  0
  6  2  1  0
 11  7  1  0
 15 10  1  0
  1 19  1  0
  1 20  1  0
  2 21  1  0
  3 22  1  0
  4 23  1  0
  5 24  1  0
  8 25  1  0
 13 26  1  0
 16 27  1  0
 16 28  1  0
 17 29  1  0
 18 30  1  0
M  RAD  1   1   2
M  END
$$$$

     RDKit          3D

 30 32  0  0  0  0  0  0  0  0999 V2000
  -14.3649   14.9807  -23.6839 C   0  0  0  0  0  3  0  0  0  0  0  0
  -13.0917   14.4941  -24.3529 C   0  0  0  0  0  0  0  0  0  0  0  0
  -11.9918   14.2715  -23.3328 C   0  0  0  0  0  0  0  0  0  0  0  0
  -11.3733   12.9908  -23.9108 C   0  0  0  0  0  0  0  0  0  0  0  0
  -12.6631   12.2988  -24.3248 C   0  0  0  0  0  0  0  0  0  0  0  0
  -13.3419   13.3000  -24.9682 O   0  0  0  0  0  0  0  0  0  0  0  0
  -12.4098   11.1481  -25.1531 N   0  0  0  0  0  0  0  0  0  0  0  0
  -13.3297   10.5871  -25.9479 C   0  0  0  0  0  0  0  0  0  0  0  0
  -12.7426    9.5503  -26.5596 N   0  0  0  0  0  0  0  0  0  0  0  0
  -11.4648    9.4634  -26.1506 C   0  0  0  0  0  0  0  0  0  0  0  0
  -11.2495   10.4839  -25.2512 C   0  0  0  0  0  0  0  0  0  0  0  0
  -10.0196   10.6187  -24.6821 N   0  0  0  0  0  0  0  0  0  0  0  0
   -9.0218    9.7897  -24.9733 C   0  0  0  0  0  0  0  0  0  0  0  0
   -9.2175    8.7951  -25.8446 N   0  0  0  0  0  0  0  0  0  0  0  0
  -10.4184    8.6107  -26.4426 C   0  0  0  0  0  0  0  0  0  0  0  0
  -10.6377    7.5619  -27.3662 N   0  0  0  0  0  0  0  0  0  0  0  0
  -10.6949   13.3633  -25.0498 O   0  0  0  0  0  0  0  0  0  0  0  0
  -11.0941   15.2998  -23.2616 O   0  0  0  0  0  0  0  0  0  0  0  0
  -15.0479   15.2930  -24.5062 H   0  0  0  0  0  0  0  0  0  0  0  0
  -14.8236   14.0944  -23.1982 H   0  0  0  0  0  0  0  0  0  0  0  0
  -12.7023   15.2678  -25.0602 H   0  0  0  0  0  0  0  0  0  0  0  0
  -12.4431   13.9755  -22.3693 H   0  0  0  0  0  0  0  0  0  0  0  0
  -10.7994   12.4348  -23.1797 H   0  0  0  0  0  0  0  0  0  0  0  0
  -13.1961   12.0457  -23.3881 H   0  0  0  0  0  0  0  0  0  0  0  0
  -14.3790   10.8922  -26.0963 H   0  0  0  0  0  0  0  0  0  0  0  0
   -8.0704    9.9184  -24.5136 H   0  0  0  0  0  0  0  0  0  0  0  0
  -10.1031    7.5360  -28.2543 H   0  0  0  0  0  0  0  0  0  0  0  0
  -11.3284    6.8186  -27.1629 H   0  0  0  0  0  0  0  0  0  0  0  0
   -9.7271   13.3879  -24.9755 H   0  0  0  0  0  0  0  0  0  0  0  0
  -11.3574   15.8649  -22.4679 H   0  0  0  0  0  0  0  0  0  0  0  0
  1  2  1  0
  2  3  1  0
  3  4  1  0
  4  5  1  0
  5  6  1  0
  5  7  1  0
  7  8  1  0
  8  9  2  0
  9 10  1  0
 10 11  2  0
 11 12  1  0
 12 13  2  0
 13 14  1  0
 14 15  2  0
 15 16  1  0
  4 17  1  0
  3 18  1  0
  6  2  1  0
 11  7  1  0
 15 10  1  0
  1 19  1  0
  1 20  1  0
  2 21  1  0
  3 22  1  0
  4 23  1  0
  5 24  1  0
  8 25  1  0
 13 26  1  0
 16 27  1  0
 16 28  1  0
 17 29  1  0
 18 30  1  0
M  RAD  1   1   2
M  END
$$$$

     RDKit          3D

 30 32  0  0  0  0  0  0  0  0999 V2000
  -12.9030   13.7812  -21.8842 C   0  0  0  0  0  3  0  0  0  0  0  0
  -12.0943   13.1982  -23.0250 C   0  0  0  0  0  0  0  0  0  0  0  0
  -11.5241   14.3400  -23.8087 C   0  0  0  0  0  0  0  0  0  0  0  0
  -11.6103   13.8446  -25.2296 C   0  0  0  0  0  0  0  0  0  0  0  0
  -12.5837   12.7226  -25.1552 C   0  0  0  0  0  0  0  0  0  0  0  0
  -12.8367   12.4122  -23.8589 O   0  0  0  0  0  0  0  0  0  0  0  0
  -12.1105   11.5708  -25.9296 N   0  0  0  0  0  0  0  0  0  0  0  0
  -12.2377   11.3818  -27.2484 C   0  0  0  0  0  0  0  0  0  0  0  0
  -11.6721   10.2040  -27.5647 N   0  0  0  0  0  0  0  0  0  0  0  0
  -11.1891    9.6605  -26.4189 C   0  0  0  0  0  0  0  0  0  0  0  0
  -11.4672   10.5266  -25.3841 C   0  0  0  0  0  0  0  0  0  0  0  0
  -11.0914   10.2283  -24.1115 N   0  0  0  0  0  0  0  0  0  0  0  0
  -10.4415    9.0850  -23.8313 C   0  0  0  0  0  0  0  0  0  0  0  0
  -10.1669    8.2359  -24.8336 N   0  0  0  0  0  0  0  0  0  0  0  0
  -10.5252    8.4968  -26.1194 C   0  0  0  0  0  0  0  0  0  0  0  0
  -10.2209    7.5801  -27.1564 N   0  0  0  0  0  0  0  0  0  0  0  0
  -12.1270   14.8521  -26.0723 O   0  0  0  0  0  0  0  0  0  0  0  0
  -12.3255   15.4874  -23.6243 O   0  0  0  0  0  0  0  0  0  0  0  0
  -13.8961   13.3033  -21.7857 H   0  0  0  0  0  0  0  0  0  0  0  0
  -12.3432   13.8136  -20.9327 H   0  0  0  0  0  0  0  0  0  0  0  0
  -11.2352   12.6527  -22.5599 H   0  0  0  0  0  0  0  0  0  0  0  0
  -10.4657   14.5658  -23.5633 H   0  0  0  0  0  0  0  0  0  0  0  0
  -10.6267   13.5667  -25.6476 H   0  0  0  0  0  0  0  0  0  0  0  0
  -13.5551   13.0129  -25.6386 H   0  0  0  0  0  0  0  0  0  0  0  0
  -12.7156   12.0653  -27.9356 H   0  0  0  0  0  0  0  0  0  0  0  0
  -10.1524    8.8689  -22.8109 H   0  0  0  0  0  0  0  0  0  0  0  0
   -9.5453    7.8740  -27.8901 H   0  0  0  0  0  0  0  0  0  0  0  0
  -10.6328    6.6276  -27.2299 H   0  0  0  0  0  0  0  0  0  0  0  0
  -13.1286   14.8177  -26.0036 H   0  0  0  0  0  0  0  0  0  0  0  0
  -13.2582   15.1556  -23.4393 H   0  0  0  0  0  0  0  0  0  0  0  0
  1  2  1  0
  2  3  1  0
  3  4  1  0
  4  5  1  0
  5  6  1  0
  5  7  1  0
  7  8  1  0
  8  9  2  0
  9 10  1  0
 10 11  2  0
 11 12  1  0
 12 13  2  0
 13 14  1  0
 14 15  2  0
 15 16  1  0
  4 17  1  0
  3 18  1  0
  6  2  1  0
 11  7  1  0
 15 10  1  0
  1 19  1  0
  1 20  1  0
  2 21  1  0
  3 22  1  0
  4 23  1  0
  5 24  1  0
  8 25  1  0
 13 26  1  0
 16 27  1  0
 16 28  1  0
 17 29  1  0
 18 30  1  0
M  RAD  1   1   2
M  END
$$$$

     RDKit          3D

 30 32  0  0  0  0  0  0  0  0999 V2000
  -13.4201   15.8170  -25.0917 C   0  0  0  0  0  3  0  0  0  0  0  0
  -12.3211   14.8409  -24.6899 C   0  0  0  0  0  0  0  0  0  0  0  0
  -12.4460   14.4381  -23.2526 C   0  0  0  0  0  0  0  0  0  0  0  0
  -12.5253   12.9094  -23.3674 C   0  0  0  0  0  0  0  0  0  0  0  0
  -11.7697   12.7189  -24.6746 C   0  0  0  0  0  0  0  0  0  0  0  0
  -12.3212   13.7089  -25.4644 O   0  0  0  0  0  0  0  0  0  0  0  0
  -11.9002   11.3984  -25.2061 N   0  0  0  0  0  0  0  0  0  0  0  0
  -13.0245   10.7270  -25.5416 C   0  0  0  0  0  0  0  0  0  0  0  0
  -12.7438    9.5059  -26.0083 N   0  0  0  0  0  0  0  0  0  0  0  0
  -11.4072    9.3698  -25.9798 C   0  0  0  0  0  0  0  0  0  0  0  0
  -10.8938   10.5483  -25.4810 C   0  0  0  0  0  0  0  0  0  0  0  0
   -9.5512   10.6459  -25.3596 N   0  0  0  0  0  0  0  0  0  0  0  0
   -8.7251    9.6425  -25.7064 C   0  0  0  0  0  0  0  0  0  0  0  0
   -9.2552    8.5213  -26.1835 N   0  0  0  0  0  0  0  0  0  0  0  0
  -10.5860    8.3179  -26.3462 C   0  0  0  0  0  0  0  0  0  0  0  0
  -11.0902    7.1021  -26.8593 N   0  0  0  0  0  0  0  0  0  0  0  0
  -13.8668   12.5836  -23.4838 O   0  0  0  0  0  0  0  0  0  0  0  0
  -11.2795   14.8122  -22.5597 O   0  0  0  0  0  0  0  0  0  0  0  0
  -13.3947   16.6263  -24.3118 H   0  0  0  0  0  0  0  0  0  0  0  0
  -13.1120   16.2857  -26.0577 H   0  0  0  0  0  0  0  0  0  0  0  0
  -11.3475   15.3826  -24.8717 H   0  0  0  0  0  0  0  0  0  0  0  0
  -13.3047   14.8584  -22.7281 H   0  0  0  0  0  0  0  0  0  0  0  0
  -12.0310   12.4053  -22.5409 H   0  0  0  0  0  0  0  0  0  0  0  0
  -10.7248   12.9571  -24.4874 H   0  0  0  0  0  0  0  0  0  0  0  0
  -14.0154   11.1243  -25.4452 H   0  0  0  0  0  0  0  0  0  0  0  0
   -7.6511    9.7316  -25.6049 H   0  0  0  0  0  0  0  0  0  0  0  0
  -11.9017    7.1061  -27.4959 H   0  0  0  0  0  0  0  0  0  0  0  0
  -10.6496    6.2059  -26.5998 H   0  0  0  0  0  0  0  0  0  0  0  0
  -14.2645   13.1597  -24.1984 H   0  0  0  0  0  0  0  0  0  0  0  0
  -10.8051   13.9805  -22.3101 H   0  0  0  0  0  0  0  0  0  0  0  0
  1  2  1  0
  2  3  1  0
  3  4  1  0
  4  5  1  0
  5  6  1  0
  5  7  1  0
  7  8  1  0
  8  9  2  0
  9 10  1  0
 10 11  2  0
 11 12  1  0
 12 13  2  0
 13 14  1  0
 14 15  2  0
 15 16  1  0
  4 17  1  0
  3 18  1  0
  6  2  1  0
 11  7  1  0
 15 10  1  0
  1 19  1  0
  1 20  1  0
  2 21  1  0
  3 22  1  0
  4 23  1  0
  5 24  1  0
  8 25  1  0
 13 26  1  0
 16 27  1  0
 16 28  1  0
 17 29  1  0
 18 30  1  0
M  RAD  1   1   2
M  END
$$$$

     RDKit          3D

 30 32  0  0  0  0  0  0  0  0999 V2000
  -14.5366   14.6227  -23.0115 C   0  0  0  0  0  3  0  0  0  0  0  0
  -13.2587   13.9388  -23.3633 C   0  0  0  0  0  0  0  0  0  0  0  0
  -12.3361   14.8173  -24.1839 C   0  0  0  0  0  0  0  0  0  0  0  0
  -11.7058   13.7966  -25.1211 C   0  0  0  0  0  0  0  0  0  0  0  0
  -12.1461   12.5003  -24.5026 C   0  0  0  0  0  0  0  0  0  0  0  0
  -13.4892   12.8015  -24.1738 O   0  0  0  0  0  0  0  0  0  0  0  0
  -12.0465   11.3728  -25.3625 N   0  0  0  0  0  0  0  0  0  0  0  0
  -12.8386   11.0725  -26.3967 C   0  0  0  0  0  0  0  0  0  0  0  0
  -12.3983    9.9318  -26.9327 N   0  0  0  0  0  0  0  0  0  0  0  0
  -11.3331    9.5076  -26.2453 C   0  0  0  0  0  0  0  0  0  0  0  0
  -11.1211   10.4139  -25.2669 C   0  0  0  0  0  0  0  0  0  0  0  0
  -10.0838   10.2068  -24.4226 N   0  0  0  0  0  0  0  0  0  0  0  0
   -9.2793    9.1369  -24.5403 C   0  0  0  0  0  0  0  0  0  0  0  0
   -9.5095    8.2524  -25.5181 N   0  0  0  0  0  0  0  0  0  0  0  0
  -10.5072    8.3893  -26.3831 C   0  0  0  0  0  0  0  0  0  0  0  0
  -10.8104    7.5040  -27.4334 N   0  0  0  0  0  0  0  0  0  0  0  0
  -10.3060   13.9498  -25.0653 O   0  0  0  0  0  0  0  0  0  0  0  0
  -11.4208   15.3930  -23.3331 O   0  0  0  0  0  0  0  0  0  0  0  0
  -15.1392   13.9570  -22.3875 H   0  0  0  0  0  0  0  0  0  0  0  0
  -14.3125   15.5972  -22.5760 H   0  0  0  0  0  0  0  0  0  0  0  0
  -12.7034   13.5479  -22.4712 H   0  0  0  0  0  0  0  0  0  0  0  0
  -12.9324   15.5661  -24.7498 H   0  0  0  0  0  0  0  0  0  0  0  0
  -12.0768   13.9461  -26.1499 H   0  0  0  0  0  0  0  0  0  0  0  0
  -11.6254   12.3928  -23.5398 H   0  0  0  0  0  0  0  0  0  0  0  0
  -13.7094   11.6611  -26.7530 H   0  0  0  0  0  0  0  0  0  0  0  0
   -8.4400    8.9369  -23.8847 H   0  0  0  0  0  0  0  0  0  0  0  0
  -10.1833    7.4401  -28.2449 H   0  0  0  0  0  0  0  0  0  0  0  0
  -11.6561    6.9213  -27.3921 H   0  0  0  0  0  0  0  0  0  0  0  0
   -9.8769   13.5388  -25.8558 H   0  0  0  0  0  0  0  0  0  0  0  0
  -10.4990   15.3224  -23.6755 H   0  0  0  0  0  0  0  0  0  0  0  0
  1  2  1  0
  2  3  1  0
  3  4  1  0
  4  5  1  0
  5  6  1  0
  5  7  1  0
  7  8  1  0
  8  9  2  0
  9 10  1  0
 10 11  2  0
 11 12  1  0
 12 13  2  0
 13 14  1  0
 14 15  2  0
 15 16  1  0
  4 17  1  0
  3 18  1  0
  6  2  1  0
 11  7  1  0
 15 10  1  0
  1 19  1  0
  1 20  1  0
  2 21  1  0
  3 22  1  0
  4 23  1  0
  5 24  1  0
  8 25  1  0
 13 26  1  0
 16 27  1  0
 16 28  1  0
 17 29  1  0
 18 30  1  0
M  RAD  1   1   2
M  END
$$$$

     RDKit          3D

 30 32  0  0  0  0  0  0  0  0999 V2000
  -13.4168   14.3422  -22.5930 C   0  0  0  0  0  3  0  0  0  0  0  0
  -12.2588   13.4131  -22.8791 C   0  0  0  0  0  0  0  0  0  0  0  0
  -11.4548   14.0761  -24.0068 C   0  0  0  0  0  0  0  0  0  0  0  0
  -12.4186   13.8503  -25.1689 C   0  0  0  0  0  0  0  0  0  0  0  0
  -13.0313   12.5224  -24.7815 C   0  0  0  0  0  0  0  0  0  0  0  0
  -12.6813   12.2568  -23.4845 O   0  0  0  0  0  0  0  0  0  0  0  0
  -12.4213   11.4826  -25.6222 N   0  0  0  0  0  0  0  0  0  0  0  0
  -12.6451   11.2838  -26.9218 C   0  0  0  0  0  0  0  0  0  0  0  0
  -11.9303   10.2549  -27.3821 N   0  0  0  0  0  0  0  0  0  0  0  0
  -11.2057    9.7546  -26.3446 C   0  0  0  0  0  0  0  0  0  0  0  0
  -11.5318   10.5407  -25.2572 C   0  0  0  0  0  0  0  0  0  0  0  0
  -10.9556   10.2705  -24.0788 N   0  0  0  0  0  0  0  0  0  0  0  0
  -10.0801    9.2549  -23.9641 C   0  0  0  0  0  0  0  0  0  0  0  0
   -9.7650    8.4899  -25.0300 N   0  0  0  0  0  0  0  0  0  0  0  0
  -10.3132    8.7108  -26.2518 C   0  0  0  0  0  0  0  0  0  0  0  0
   -9.9809    7.9061  -27.3703 N   0  0  0  0  0  0  0  0  0  0  0  0
  -11.7804   13.7902  -26.3807 O   0  0  0  0  0  0  0  0  0  0  0  0
  -11.2561   15.4082  -23.7387 O   0  0  0  0  0  0  0  0  0  0  0  0
  -14.1620   14.2542  -23.3891 H   0  0  0  0  0  0  0  0  0  0  0  0
  -13.8718   14.1946  -21.6129 H   0  0  0  0  0  0  0  0  0  0  0  0
  -11.6422   13.2107  -21.9983 H   0  0  0  0  0  0  0  0  0  0  0  0
  -10.5389   13.5039  -24.2071 H   0  0  0  0  0  0  0  0  0  0  0  0
  -13.1914   14.6523  -25.2006 H   0  0  0  0  0  0  0  0  0  0  0  0
  -14.1030   12.5789  -24.9835 H   0  0  0  0  0  0  0  0  0  0  0  0
  -13.3179   11.8767  -27.5294 H   0  0  0  0  0  0  0  0  0  0  0  0
   -9.6338    9.0709  -22.9815 H   0  0  0  0  0  0  0  0  0  0  0  0
  -10.4874    7.0135  -27.5325 H   0  0  0  0  0  0  0  0  0  0  0  0
   -9.2359    8.1881  -28.0398 H   0  0  0  0  0  0  0  0  0  0  0  0
  -11.4247   14.6924  -26.5856 H   0  0  0  0  0  0  0  0  0  0  0  0
  -10.5095   15.7247  -24.3324 H   0  0  0  0  0  0  0  0  0  0  0  0
  1  2  1  0
  2  3  1  0
  3  4  1  0
  4  5  1  0
  5  6  1  0
  5  7  1  0
  7  8  1  0
  8  9  2  0
  9 10  1  0
 10 11  2  0
 11 12  1  0
 12 13  2  0
 13 14  1  0
 14 15  2  0
 15 16  1  0
  4 17  1  0
  3 18  1  0
  6  2  1  0
 11  7  1  0
 15 10  1  0
  1 19  1  0
  1 20  1  0
  2 21  1  0
  3 22  1  0
  4 23  1  0
  5 24  1  0
  8 25  1  0
 13 26  1  0
 16 27  1  0
 16 28  1  0
 17 29  1  0
 18 30  1  0
M  RAD  1   1   2
M  END
$$$$

     RDKit          3D

 30 32  0  0  0  0  0  0  0  0999 V2000
  -13.0214   14.4349  -22.1873 C   0  0  0  0  0  3  0  0  0  0  0  0
  -13.5152   13.7504  -23.4438 C   0  0  0  0  0  0  0  0  0  0  0  0
  -12.9298   14.5061  -24.6456 C   0  0  0  0  0  0  0  0  0  0  0  0
  -11.5388   13.9021  -24.6569 C   0  0  0  0  0  0  0  0  0  0  0  0
  -11.7902   12.5195  -24.1652 C   0  0  0  0  0  0  0  0  0  0  0  0
  -13.0374   12.4725  -23.5786 O   0  0  0  0  0  0  0  0  0  0  0  0
  -11.6320   11.5633  -25.2267 N   0  0  0  0  0  0  0  0  0  0  0  0
  -11.9906   11.6989  -26.5131 C   0  0  0  0  0  0  0  0  0  0  0  0
  -11.6870   10.5973  -27.2176 N   0  0  0  0  0  0  0  0  0  0  0  0
  -11.1171    9.7252  -26.3667 C   0  0  0  0  0  0  0  0  0  0  0  0
  -11.0811   10.3247  -25.1232 C   0  0  0  0  0  0  0  0  0  0  0  0
  -10.5571    9.6820  -24.0515 N   0  0  0  0  0  0  0  0  0  0  0  0
  -10.0562    8.4397  -24.1684 C   0  0  0  0  0  0  0  0  0  0  0  0
  -10.0962    7.8656  -25.3831 N   0  0  0  0  0  0  0  0  0  0  0  0
  -10.6006    8.4510  -26.4748 C   0  0  0  0  0  0  0  0  0  0  0  0
  -10.6350    7.8323  -27.7466 N   0  0  0  0  0  0  0  0  0  0  0  0
  -10.9239   13.9803  -25.8794 O   0  0  0  0  0  0  0  0  0  0  0  0
  -12.9175   15.8623  -24.4275 O   0  0  0  0  0  0  0  0  0  0  0  0
  -13.9167   14.7226  -21.5996 H   0  0  0  0  0  0  0  0  0  0  0  0
  -12.4539   15.3508  -22.3995 H   0  0  0  0  0  0  0  0  0  0  0  0
  -14.6094   13.7239  -23.4980 H   0  0  0  0  0  0  0  0  0  0  0  0
  -13.5374   14.2217  -25.5064 H   0  0  0  0  0  0  0  0  0  0  0  0
  -10.9483   14.5002  -23.9065 H   0  0  0  0  0  0  0  0  0  0  0  0
  -11.0479   12.3220  -23.3360 H   0  0  0  0  0  0  0  0  0  0  0  0
  -12.4606   12.5706  -26.9375 H   0  0  0  0  0  0  0  0  0  0  0  0
   -9.6252    7.8964  -23.3138 H   0  0  0  0  0  0  0  0  0  0  0  0
  -10.2210    8.2760  -28.5954 H   0  0  0  0  0  0  0  0  0  0  0  0
  -11.0849    6.9022  -27.8578 H   0  0  0  0  0  0  0  0  0  0  0  0
  -11.2530   14.7225  -26.4500 H   0  0  0  0  0  0  0  0  0  0  0  0
  -13.2132   16.3039  -25.2619 H   0  0  0  0  0  0  0  0  0  0  0  0
  1  2  1  0
  2  3  1  0
  3  4  1  0
  4  5  1  0
  5  6  1  0
  5  7  1  0
  7  8  1  0
  8  9  2  0
  9 10  1  0
 10 11  2  0
 11 12  1  0
 12 13  2  0
 13 14  1  0
 14 15  2  0
 15 16  1  0
  4 17  1  0
  3 18  1  0
  6  2  1  0
 11  7  1  0
 15 10  1  0
  1 19  1  0
  1 20  1  0
  2 21  1  0
  3 22  1  0
  4 23  1  0
  5 24  1  0
  8 25  1  0
 13 26  1  0
 16 27  1  0
 16 28  1  0
 17 29  1  0
 18 30  1  0
M  RAD  1   1   2
M  END
$$$$

     RDKit          3D

 30 32  0  0  0  0  0  0  0  0999 V2000
  -10.4543   14.5910  -22.9145 C   0  0  0  0  0  3  0  0  0  0  0  0
  -11.8573   13.9906  -23.0386 C   0  0  0  0  0  0  0  0  0  0  0  0
  -12.5963   14.7655  -24.0757 C   0  0  0  0  0  0  0  0  0  0  0  0
  -12.5779   13.8237  -25.2526 C   0  0  0  0  0  0  0  0  0  0  0  0
  -12.5148   12.4813  -24.5547 C   0  0  0  0  0  0  0  0  0  0  0  0
  -11.7308   12.6936  -23.4423 O   0  0  0  0  0  0  0  0  0  0  0  0
  -11.9127   11.5324  -25.4833 N   0  0  0  0  0  0  0  0  0  0  0  0
  -11.7422   11.6916  -26.8056 C   0  0  0  0  0  0  0  0  0  0  0  0
  -11.1562   10.6069  -27.3100 N   0  0  0  0  0  0  0  0  0  0  0  0
  -10.9509    9.7528  -26.3125 C   0  0  0  0  0  0  0  0  0  0  0  0
  -11.4218   10.3253  -25.1664 C   0  0  0  0  0  0  0  0  0  0  0  0
  -11.3151    9.6292  -24.0229 N   0  0  0  0  0  0  0  0  0  0  0  0
  -10.7546    8.4062  -24.0455 C   0  0  0  0  0  0  0  0  0  0  0  0
  -10.2868    7.8321  -25.1710 N   0  0  0  0  0  0  0  0  0  0  0  0
  -10.3680    8.4836  -26.3426 C   0  0  0  0  0  0  0  0  0  0  0  0
   -9.8981    7.9452  -27.5675 N   0  0  0  0  0  0  0  0  0  0  0  0
  -13.6989   13.9496  -26.0562 O   0  0  0  0  0  0  0  0  0  0  0  0
  -13.8901   15.1074  -23.6939 O   0  0  0  0  0  0  0  0  0  0  0  0
  -10.5211   15.7071  -23.0546 H   0  0  0  0  0  0  0  0  0  0  0  0
   -9.8325   14.2062  -23.7300 H   0  0  0  0  0  0  0  0  0  0  0  0
  -12.3009   14.0928  -22.0115 H   0  0  0  0  0  0  0  0  0  0  0  0
  -12.0562   15.7117  -24.3410 H   0  0  0  0  0  0  0  0  0  0  0  0
  -11.6367   14.0015  -25.8070 H   0  0  0  0  0  0  0  0  0  0  0  0
  -13.5510   12.1770  -24.3091 H   0  0  0  0  0  0  0  0  0  0  0  0
  -12.0384   12.5720  -27.3738 H   0  0  0  0  0  0  0  0  0  0  0  0
  -10.6491    7.8058  -23.1330 H   0  0  0  0  0  0  0  0  0  0  0  0
  -10.4544    7.1852  -28.0058 H   0  0  0  0  0  0  0  0  0  0  0  0
   -9.0370    8.2575  -28.0567 H   0  0  0  0  0  0  0  0  0  0  0  0
  -14.3893   13.3064  -25.7067 H   0  0  0  0  0  0  0  0  0  0  0  0
  -14.4570   15.0145  -24.5065 H   0  0  0  0  0  0  0  0  0  0  0  0
  1  2  1  0
  2  3  1  0
  3  4  1  0
  4  5  1  0
  5  6  1  0
  5  7  1  0
  7  8  1  0
  8  9  2  0
  9 10  1  0
 10 11  2  0
 11 12  1  0
 12 13  2  0
 13 14  1  0
 14 15  2  0
 15 16  1  0
  4 17  1  0
  3 18  1  0
  6  2  1  0
 11  7  1  0
 15 10  1  0
  1 19  1  0
  1 20  1  0
  2 21  1  0
  3 22  1  0
  4 23  1  0
  5 24  1  0
  8 25  1  0
 13 26  1  0
 16 27  1  0
 16 28  1  0
 17 29  1  0
 18 30  1  0
M  RAD  1   1   2
M  END
$$$$

     RDKit          3D

 30 32  0  0  0  0  0  0  0  0999 V2000
  -14.2521   14.2829  -22.5743 C   0  0  0  0  0  3  0  0  0  0  0  0
  -12.8633   14.0195  -23.0891 C   0  0  0  0  0  0  0  0  0  0  0  0
  -12.5688   14.7847  -24.3620 C   0  0  0  0  0  0  0  0  0  0  0  0
  -11.3820   14.0132  -24.9005 C   0  0  0  0  0  0  0  0  0  0  0  0
  -11.5616   12.6585  -24.2507 C   0  0  0  0  0  0  0  0  0  0  0  0
  -12.7254   12.6974  -23.5283 O   0  0  0  0  0  0  0  0  0  0  0  0
  -11.5613   11.6063  -25.2634 N   0  0  0  0  0  0  0  0  0  0  0  0
  -12.1079   11.6759  -26.4914 C   0  0  0  0  0  0  0  0  0  0  0  0
  -11.9103   10.5096  -27.1465 N   0  0  0  0  0  0  0  0  0  0  0  0
  -11.2346    9.6703  -26.3540 C   0  0  0  0  0  0  0  0  0  0  0  0
  -11.0236   10.3761  -25.1745 C   0  0  0  0  0  0  0  0  0  0  0  0
  -10.3504    9.7376  -24.1942 N   0  0  0  0  0  0  0  0  0  0  0  0
   -9.9108    8.4793  -24.3647 C   0  0  0  0  0  0  0  0  0  0  0  0
  -10.1228    7.8054  -25.5161 N   0  0  0  0  0  0  0  0  0  0  0  0
  -10.7847    8.3832  -26.5277 C   0  0  0  0  0  0  0  0  0  0  0  0
  -10.9827    7.6384  -27.7143 N   0  0  0  0  0  0  0  0  0  0  0  0
  -10.1715   14.6101  -24.5357 O   0  0  0  0  0  0  0  0  0  0  0  0
  -13.6132   14.6595  -25.2684 O   0  0  0  0  0  0  0  0  0  0  0  0
  -14.1763   14.2700  -21.4501 H   0  0  0  0  0  0  0  0  0  0  0  0
  -14.5087   15.3347  -22.8412 H   0  0  0  0  0  0  0  0  0  0  0  0
  -12.0689   14.2748  -22.3457 H   0  0  0  0  0  0  0  0  0  0  0  0
  -12.3132   15.8447  -24.1620 H   0  0  0  0  0  0  0  0  0  0  0  0
  -11.3905   13.9494  -26.0050 H   0  0  0  0  0  0  0  0  0  0  0  0
  -10.7165   12.5346  -23.5415 H   0  0  0  0  0  0  0  0  0  0  0  0
  -12.6381   12.5060  -26.9482 H   0  0  0  0  0  0  0  0  0  0  0  0
   -9.3775    8.0161  -23.5473 H   0  0  0  0  0  0  0  0  0  0  0  0
  -10.9844    6.5975  -27.6945 H   0  0  0  0  0  0  0  0  0  0  0  0
  -11.1344    8.0780  -28.6523 H   0  0  0  0  0  0  0  0  0  0  0  0
   -9.5615   13.8547  -24.2736 H   0  0  0  0  0  0  0  0  0  0  0  0
  -14.4650   14.9559  -24.8594 H   0  0  0  0  0  0  0  0  0  0  0  0
  1  2  1  0
  2  3  1  0
  3  4  1  0
  4  5  1  0
  5  6  1  0
  5  7  1  0
  7  8  1  0
  8  9  2  0
  9 10  1  0
 10 11  2  0
 11 12  1  0
 12 13  2  0
 13 14  1  0
 14 15  2  0
 15 16  1  0
  4 17  1  0
  3 18  1  0
  6  2  1  0
 11  7  1  0
 15 10  1  0
  1 19  1  0
  1 20  1  0
  2 21  1  0
  3 22  1  0
  4 23  1  0
  5 24  1  0
  8 25  1  0
 13 26  1  0
 16 27  1  0
 16 28  1  0
 17 29  1  0
 18 30  1  0
M  RAD  1   1   2
M  END
$$$$

     RDKit          3D

 30 32  0  0  0  0  0  0  0  0999 V2000
  -14.1346   14.8712  -22.9369 C   0  0  0  0  0  3  0  0  0  0  0  0
  -13.4896   14.1333  -24.1160 C   0  0  0  0  0  0  0  0  0  0  0  0
  -12.1097   14.6533  -24.2799 C   0  0  0  0  0  0  0  0  0  0  0  0
  -11.2689   13.4037  -24.3676 C   0  0  0  0  0  0  0  0  0  0  0  0
  -12.1977   12.3110  -23.9911 C   0  0  0  0  0  0  0  0  0  0  0  0
  -13.4540   12.8118  -23.8036 O   0  0  0  0  0  0  0  0  0  0  0  0
  -12.1659   11.2963  -25.0192 N   0  0  0  0  0  0  0  0  0  0  0  0
  -13.0539   10.9965  -25.9802 C   0  0  0  0  0  0  0  0  0  0  0  0
  -12.6011    9.9646  -26.7178 N   0  0  0  0  0  0  0  0  0  0  0  0
  -11.4132    9.5864  -26.2394 C   0  0  0  0  0  0  0  0  0  0  0  0
  -11.1510   10.4300  -25.1733 C   0  0  0  0  0  0  0  0  0  0  0  0
   -9.9802   10.2242  -24.5289 N   0  0  0  0  0  0  0  0  0  0  0  0
   -9.1227    9.2702  -24.8894 C   0  0  0  0  0  0  0  0  0  0  0  0
   -9.4019    8.4692  -25.9238 N   0  0  0  0  0  0  0  0  0  0  0  0
  -10.5463    8.5898  -26.6372 C   0  0  0  0  0  0  0  0  0  0  0  0
  -10.8034    7.7235  -27.7231 N   0  0  0  0  0  0  0  0  0  0  0  0
  -10.1916   13.4545  -23.4847 O   0  0  0  0  0  0  0  0  0  0  0  0
  -12.0415   15.4186  -25.4440 O   0  0  0  0  0  0  0  0  0  0  0  0
  -14.6634   15.7335  -23.3394 H   0  0  0  0  0  0  0  0  0  0  0  0
  -14.7976   14.1652  -22.3831 H   0  0  0  0  0  0  0  0  0  0  0  0
  -14.1158   14.2849  -25.0384 H   0  0  0  0  0  0  0  0  0  0  0  0
  -11.7588   15.2233  -23.3985 H   0  0  0  0  0  0  0  0  0  0  0  0
  -10.8453   13.3143  -25.3933 H   0  0  0  0  0  0  0  0  0  0  0  0
  -11.8964   11.7995  -23.0339 H   0  0  0  0  0  0  0  0  0  0  0  0
  -13.9823   11.5289  -26.1086 H   0  0  0  0  0  0  0  0  0  0  0  0
   -8.1946    9.1682  -24.3152 H   0  0  0  0  0  0  0  0  0  0  0  0
  -10.8550    8.0581  -28.6990 H   0  0  0  0  0  0  0  0  0  0  0  0
  -10.9451    6.7171  -27.5322 H   0  0  0  0  0  0  0  0  0  0  0  0
  -10.4105   12.9101  -22.6766 H   0  0  0  0  0  0  0  0  0  0  0  0
  -12.7838   15.2213  -26.0750 H   0  0  0  0  0  0  0  0  0  0  0  0
  1  2  1  0
  2  3  1  0
  3  4  1  0
  4  5  1  0
  5  6  1  0
  5  7  1  0
  7  8  1  0
  8  9  2  0
  9 10  1  0
 10 11  2  0
 11 12  1  0
 12 13  2  0
 13 14  1  0
 14 15  2  0
 15 16  1  0
  4 17  1  0
  3 18  1  0
  6  2  1  0
 11  7  1  0
 15 10  1  0
  1 19  1  0
  1 20  1  0
  2 21  1  0
  3 22  1  0
  4 23  1  0
  5 24  1  0
  8 25  1  0
 13 26  1  0
 16 27  1  0
 16 28  1  0
 17 29  1  0
 18 30  1  0
M  RAD  1   1   2
M  END
$$$$

     RDKit          3D

 30 32  0  0  0  0  0  0  0  0999 V2000
  -13.2064   13.6284  -21.7630 C   0  0  0  0  0  3  0  0  0  0  0  0
  -12.3851   13.7729  -23.0240 C   0  0  0  0  0  0  0  0  0  0  0  0
  -13.1623   14.3642  -24.1570 C   0  0  0  0  0  0  0  0  0  0  0  0
  -12.4405   13.8339  -25.3775 C   0  0  0  0  0  0  0  0  0  0  0  0
  -11.4367   12.8883  -24.7512 C   0  0  0  0  0  0  0  0  0  0  0  0
  -12.0121   12.5270  -23.5264 O   0  0  0  0  0  0  0  0  0  0  0  0
  -11.2152   11.7476  -25.5909 N   0  0  0  0  0  0  0  0  0  0  0  0
  -11.0423   11.7690  -26.9256 C   0  0  0  0  0  0  0  0  0  0  0  0
  -10.8579   10.5267  -27.4059 N   0  0  0  0  0  0  0  0  0  0  0  0
  -10.9089    9.6711  -26.3791 C   0  0  0  0  0  0  0  0  0  0  0  0
  -11.1315   10.4373  -25.2521 C   0  0  0  0  0  0  0  0  0  0  0  0
  -11.2261    9.8128  -24.0651 N   0  0  0  0  0  0  0  0  0  0  0  0
  -11.1050    8.4720  -23.9894 C   0  0  0  0  0  0  0  0  0  0  0  0
  -10.8881    7.7388  -25.0974 N   0  0  0  0  0  0  0  0  0  0  0  0
  -10.7805    8.2895  -26.3287 C   0  0  0  0  0  0  0  0  0  0  0  0
  -10.5517    7.5194  -27.4995 N   0  0  0  0  0  0  0  0  0  0  0  0
  -11.7443   14.8396  -26.0471 O   0  0  0  0  0  0  0  0  0  0  0  0
  -13.0325   15.7693  -24.0760 O   0  0  0  0  0  0  0  0  0  0  0  0
  -12.5008   13.4860  -20.9196 H   0  0  0  0  0  0  0  0  0  0  0  0
  -13.7702   14.5595  -21.5586 H   0  0  0  0  0  0  0  0  0  0  0  0
  -11.4745   14.4012  -22.8416 H   0  0  0  0  0  0  0  0  0  0  0  0
  -14.2358   14.0715  -24.1375 H   0  0  0  0  0  0  0  0  0  0  0  0
  -13.1387   13.2974  -26.0522 H   0  0  0  0  0  0  0  0  0  0  0  0
  -10.5187   13.4552  -24.5181 H   0  0  0  0  0  0  0  0  0  0  0  0
  -11.0435   12.6531  -27.5758 H   0  0  0  0  0  0  0  0  0  0  0  0
  -11.1869    7.9874  -23.0033 H   0  0  0  0  0  0  0  0  0  0  0  0
  -11.1775    7.6793  -28.3149 H   0  0  0  0  0  0  0  0  0  0  0  0
   -9.7992    6.8070  -27.5924 H   0  0  0  0  0  0  0  0  0  0  0  0
  -10.7615   14.7448  -25.9486 H   0  0  0  0  0  0  0  0  0  0  0  0
  -13.1105   16.1774  -24.9844 H   0  0  0  0  0  0  0  0  0  0  0  0
  1  2  1  0
  2  3  1  0
  3  4  1  0
  4  5  1  0
  5  6  1  0
  5  7  1  0
  7  8  1  0
  8  9  2  0
  9 10  1  0
 10 11  2  0
 11 12  1  0
 12 13  2  0
 13 14  1  0
 14 15  2  0
 15 16  1  0
  4 17  1  0
  3 18  1  0
  6  2  1  0
 11  7  1  0
 15 10  1  0
  1 19  1  0
  1 20  1  0
  2 21  1  0
  3 22  1  0
  4 23  1  0
  5 24  1  0
  8 25  1  0
 13 26  1  0
 16 27  1  0
 16 28  1  0
 17 29  1  0
 18 30  1  0
M  RAD  1   1   2
M  END
$$$$

     RDKit          3D

 30 32  0  0  0  0  0  0  0  0999 V2000
  -13.9104   15.4573  -23.8297 C   0  0  0  0  0  3  0  0  0  0  0  0
  -12.8904   14.6152  -24.5653 C   0  0  0  0  0  0  0  0  0  0  0  0
  -11.7255   14.4073  -23.6190 C   0  0  0  0  0  0  0  0  0  0  0  0
  -11.2428   13.0386  -24.0905 C   0  0  0  0  0  0  0  0  0  0  0  0
  -12.6114   12.4012  -24.3732 C   0  0  0  0  0  0  0  0  0  0  0  0
  -13.3614   13.3912  -24.9409 O   0  0  0  0  0  0  0  0  0  0  0  0
  -12.4178   11.2375  -25.1740 N   0  0  0  0  0  0  0  0  0  0  0  0
  -13.3010   10.6098  -25.9882 C   0  0  0  0  0  0  0  0  0  0  0  0
  -12.7288    9.5471  -26.5663 N   0  0  0  0  0  0  0  0  0  0  0  0
  -11.4599    9.4781  -26.1270 C   0  0  0  0  0  0  0  0  0  0  0  0
  -11.2686   10.5222  -25.2672 C   0  0  0  0  0  0  0  0  0  0  0  0
  -10.0452   10.6443  -24.7017 N   0  0  0  0  0  0  0  0  0  0  0  0
   -9.0370    9.7967  -24.9492 C   0  0  0  0  0  0  0  0  0  0  0  0
   -9.2362    8.7780  -25.7928 N   0  0  0  0  0  0  0  0  0  0  0  0
  -10.4280    8.6055  -26.3840 C   0  0  0  0  0  0  0  0  0  0  0  0
  -10.6473    7.5199  -27.2858 N   0  0  0  0  0  0  0  0  0  0  0  0
  -10.5638   13.2368  -25.2790 O   0  0  0  0  0  0  0  0  0  0  0  0
  -12.2516   14.3213  -22.3223 O   0  0  0  0  0  0  0  0  0  0  0  0
  -13.4107   16.4109  -23.5602 H   0  0  0  0  0  0  0  0  0  0  0  0
  -14.8499   15.5716  -24.3685 H   0  0  0  0  0  0  0  0  0  0  0  0
  -12.4704   15.1887  -25.4409 H   0  0  0  0  0  0  0  0  0  0  0  0
  -10.9582   15.1746  -23.7165 H   0  0  0  0  0  0  0  0  0  0  0  0
  -10.6859   12.5003  -23.3286 H   0  0  0  0  0  0  0  0  0  0  0  0
  -13.0499   12.1763  -23.3664 H   0  0  0  0  0  0  0  0  0  0  0  0
  -14.3280   10.9218  -26.1510 H   0  0  0  0  0  0  0  0  0  0  0  0
   -8.0509    9.9053  -24.4857 H   0  0  0  0  0  0  0  0  0  0  0  0
  -11.4078    7.5522  -27.9776 H   0  0  0  0  0  0  0  0  0  0  0  0
  -10.0024    6.6849  -27.2171 H   0  0  0  0  0  0  0  0  0  0  0  0
  -11.1968   13.2204  -26.0652 H   0  0  0  0  0  0  0  0  0  0  0  0
  -11.5044   14.1569  -21.6954 H   0  0  0  0  0  0  0  0  0  0  0  0
  1  2  1  0
  2  3  1  0
  3  4  1  0
  4  5  1  0
  5  6  1  0
  5  7  1  0
  7  8  1  0
  8  9  2  0
  9 10  1  0
 10 11  2  0
 11 12  1  0
 12 13  2  0
 13 14  1  0
 14 15  2  0
 15 16  1  0
  4 17  1  0
  3 18  1  0
  6  2  1  0
 11  7  1  0
 15 10  1  0
  1 19  1  0
  1 20  1  0
  2 21  1  0
  3 22  1  0
  4 23  1  0
  5 24  1  0
  8 25  1  0
 13 26  1  0
 16 27  1  0
 16 28  1  0
 17 29  1  0
 18 30  1  0
M  RAD  1   1   2
M  END
$$$$

     RDKit          3D

 30 32  0  0  0  0  0  0  0  0999 V2000
  -12.1781   13.4771  -21.8165 C   0  0  0  0  0  3  0  0  0  0  0  0
  -12.8862   13.7301  -23.1323 C   0  0  0  0  0  0  0  0  0  0  0  0
  -12.2635   14.8494  -23.9113 C   0  0  0  0  0  0  0  0  0  0  0  0
  -11.7464   14.1039  -25.1512 C   0  0  0  0  0  0  0  0  0  0  0  0
  -11.6308   12.7220  -24.6030 C   0  0  0  0  0  0  0  0  0  0  0  0
  -12.8127   12.5814  -23.8810 O   0  0  0  0  0  0  0  0  0  0  0  0
  -11.4295   11.7057  -25.5857 N   0  0  0  0  0  0  0  0  0  0  0  0
  -11.4722   11.7382  -26.9288 C   0  0  0  0  0  0  0  0  0  0  0  0
  -11.2139   10.5226  -27.4376 N   0  0  0  0  0  0  0  0  0  0  0  0
  -11.0013    9.6959  -26.3863 C   0  0  0  0  0  0  0  0  0  0  0  0
  -11.1351   10.4280  -25.2533 C   0  0  0  0  0  0  0  0  0  0  0  0
  -10.9646    9.8079  -24.0477 N   0  0  0  0  0  0  0  0  0  0  0  0
  -10.6725    8.5137  -23.9452 C   0  0  0  0  0  0  0  0  0  0  0  0
  -10.5417    7.7951  -25.0731 N   0  0  0  0  0  0  0  0  0  0  0  0
  -10.6971    8.3473  -26.2847 C   0  0  0  0  0  0  0  0  0  0  0  0
  -10.5560    7.5785  -27.4521 N   0  0  0  0  0  0  0  0  0  0  0  0
  -12.7332   14.2053  -26.1305 O   0  0  0  0  0  0  0  0  0  0  0  0
  -13.1920   15.8059  -24.2357 O   0  0  0  0  0  0  0  0  0  0  0  0
  -12.4495   12.4650  -21.4402 H   0  0  0  0  0  0  0  0  0  0  0  0
  -11.0974   13.5608  -21.9171 H   0  0  0  0  0  0  0  0  0  0  0  0
  -13.9417   13.9735  -22.8781 H   0  0  0  0  0  0  0  0  0  0  0  0
  -11.4105   15.2518  -23.3302 H   0  0  0  0  0  0  0  0  0  0  0  0
  -10.8011   14.5798  -25.4270 H   0  0  0  0  0  0  0  0  0  0  0  0
  -10.7360   12.7078  -23.9259 H   0  0  0  0  0  0  0  0  0  0  0  0
  -11.6899   12.6421  -27.5195 H   0  0  0  0  0  0  0  0  0  0  0  0
  -10.5530    8.0958  -22.9571 H   0  0  0  0  0  0  0  0  0  0  0  0
  -11.1966    6.7946  -27.7187 H   0  0  0  0  0  0  0  0  0  0  0  0
   -9.7791    7.7844  -28.0990 H   0  0  0  0  0  0  0  0  0  0  0  0
  -13.5783   14.5402  -25.7653 H   0  0  0  0  0  0  0  0  0  0  0  0
  -14.0950   15.5774  -23.9014 H   0  0  0  0  0  0  0  0  0  0  0  0
  1  2  1  0
  2  3  1  0
  3  4  1  0
  4  5  1  0
  5  6  1  0
  5  7  1  0
  7  8  1  0
  8  9  2  0
  9 10  1  0
 10 11  2  0
 11 12  1  0
 12 13  2  0
 13 14  1  0
 14 15  2  0
 15 16  1  0
  4 17  1  0
  3 18  1  0
  6  2  1  0
 11  7  1  0
 15 10  1  0
  1 19  1  0
  1 20  1  0
  2 21  1  0
  3 22  1  0
  4 23  1  0
  5 24  1  0
  8 25  1  0
 13 26  1  0
 16 27  1  0
 16 28  1  0
 17 29  1  0
 18 30  1  0
M  RAD  1   1   2
M  END
$$$$

     RDKit          3D

 30 32  0  0  0  0  0  0  0  0999 V2000
  -10.3478   14.9881  -23.7996 C   0  0  0  0  0  3  0  0  0  0  0  0
  -11.4999   14.1590  -23.2534 C   0  0  0  0  0  0  0  0  0  0  0  0
  -12.7615   14.7020  -23.8963 C   0  0  0  0  0  0  0  0  0  0  0  0
  -12.7890   13.8336  -25.1452 C   0  0  0  0  0  0  0  0  0  0  0  0
  -12.3656   12.5127  -24.5021 C   0  0  0  0  0  0  0  0  0  0  0  0
  -11.4058   12.8284  -23.5718 O   0  0  0  0  0  0  0  0  0  0  0  0
  -11.9483   11.5532  -25.4643 N   0  0  0  0  0  0  0  0  0  0  0  0
  -12.0926   11.6367  -26.7912 C   0  0  0  0  0  0  0  0  0  0  0  0
  -11.5564   10.5084  -27.3293 N   0  0  0  0  0  0  0  0  0  0  0  0
  -11.0723    9.7076  -26.3589 C   0  0  0  0  0  0  0  0  0  0  0  0
  -11.3352   10.3988  -25.1719 C   0  0  0  0  0  0  0  0  0  0  0  0
  -10.9370    9.7912  -24.0321 N   0  0  0  0  0  0  0  0  0  0  0  0
  -10.3260    8.6002  -24.0126 C   0  0  0  0  0  0  0  0  0  0  0  0
  -10.0866    7.9571  -25.1841 N   0  0  0  0  0  0  0  0  0  0  0  0
  -10.4443    8.4794  -26.3652 C   0  0  0  0  0  0  0  0  0  0  0  0
  -10.1820    7.7859  -27.5770 N   0  0  0  0  0  0  0  0  0  0  0  0
  -14.0828   13.7577  -25.6437 O   0  0  0  0  0  0  0  0  0  0  0  0
  -13.8938   14.4080  -23.1570 O   0  0  0  0  0  0  0  0  0  0  0  0
  -10.6685   15.7575  -24.5069 H   0  0  0  0  0  0  0  0  0  0  0  0
   -9.4920   14.3859  -24.1108 H   0  0  0  0  0  0  0  0  0  0  0  0
  -11.5056   14.2976  -22.1523 H   0  0  0  0  0  0  0  0  0  0  0  0
  -12.6660   15.7760  -24.1383 H   0  0  0  0  0  0  0  0  0  0  0  0
  -12.0430   14.1392  -25.8863 H   0  0  0  0  0  0  0  0  0  0  0  0
  -13.2775   12.1790  -23.9234 H   0  0  0  0  0  0  0  0  0  0  0  0
  -12.5400   12.4220  -27.3861 H   0  0  0  0  0  0  0  0  0  0  0  0
  -10.0457    8.1960  -23.0518 H   0  0  0  0  0  0  0  0  0  0  0  0
  -10.1699    6.7425  -27.6180 H   0  0  0  0  0  0  0  0  0  0  0  0
   -9.9931    8.2896  -28.4653 H   0  0  0  0  0  0  0  0  0  0  0  0
  -14.1329   14.1474  -26.5426 H   0  0  0  0  0  0  0  0  0  0  0  0
  -13.9139   14.8777  -22.2862 H   0  0  0  0  0  0  0  0  0  0  0  0
  1  2  1  0
  2  3  1  0
  3  4  1  0
  4  5  1  0
  5  6  1  0
  5  7  1  0
  7  8  1  0
  8  9  2  0
  9 10  1  0
 10 11  2  0
 11 12  1  0
 12 13  2  0
 13 14  1  0
 14 15  2  0
 15 16  1  0
  4 17  1  0
  3 18  1  0
  6  2  1  0
 11  7  1  0
 15 10  1  0
  1 19  1  0
  1 20  1  0
  2 21  1  0
  3 22  1  0
  4 23  1  0
  5 24  1  0
  8 25  1  0
 13 26  1  0
 16 27  1  0
 16 28  1  0
 17 29  1  0
 18 30  1  0
M  RAD  1   1   2
M  END
$$$$

     RDKit          3D

 30 32  0  0  0  0  0  0  0  0999 V2000
  -11.5475   14.6583  -22.0952 C   0  0  0  0  0  3  0  0  0  0  0  0
  -12.4451   13.8479  -22.9976 C   0  0  0  0  0  0  0  0  0  0  0  0
  -12.8809   14.7509  -24.1243 C   0  0  0  0  0  0  0  0  0  0  0  0
  -12.4500   13.9433  -25.3531 C   0  0  0  0  0  0  0  0  0  0  0  0
  -12.4933   12.5395  -24.7368 C   0  0  0  0  0  0  0  0  0  0  0  0
  -11.8114   12.7572  -23.5603 O   0  0  0  0  0  0  0  0  0  0  0  0
  -11.9207   11.5543  -25.5896 N   0  0  0  0  0  0  0  0  0  0  0  0
  -11.7626   11.6717  -26.9184 C   0  0  0  0  0  0  0  0  0  0  0  0
  -11.1894   10.5436  -27.3736 N   0  0  0  0  0  0  0  0  0  0  0  0
  -10.9752    9.7050  -26.3726 C   0  0  0  0  0  0  0  0  0  0  0  0
  -11.4487   10.3649  -25.2333 C   0  0  0  0  0  0  0  0  0  0  0  0
  -11.3265    9.6777  -24.0761 N   0  0  0  0  0  0  0  0  0  0  0  0
  -10.7870    8.4444  -24.0231 C   0  0  0  0  0  0  0  0  0  0  0  0
  -10.3374    7.8288  -25.1361 N   0  0  0  0  0  0  0  0  0  0  0  0
  -10.4212    8.4459  -26.3389 C   0  0  0  0  0  0  0  0  0  0  0  0
   -9.9429    7.7827  -27.5002 N   0  0  0  0  0  0  0  0  0  0  0  0
  -11.1285   14.2722  -25.6968 O   0  0  0  0  0  0  0  0  0  0  0  0
  -14.2589   14.8196  -24.1299 O   0  0  0  0  0  0  0  0  0  0  0  0
  -11.8172   14.6259  -21.0445 H   0  0  0  0  0  0  0  0  0  0  0  0
  -10.4878   14.5672  -22.3273 H   0  0  0  0  0  0  0  0  0  0  0  0
  -13.3237   13.5164  -22.3754 H   0  0  0  0  0  0  0  0  0  0  0  0
  -12.3824   15.7398  -24.1038 H   0  0  0  0  0  0  0  0  0  0  0  0
  -13.1375   14.0535  -26.1892 H   0  0  0  0  0  0  0  0  0  0  0  0
  -13.5551   12.3528  -24.4838 H   0  0  0  0  0  0  0  0  0  0  0  0
  -12.0331   12.5060  -27.5512 H   0  0  0  0  0  0  0  0  0  0  0  0
  -10.6963    7.9047  -23.0810 H   0  0  0  0  0  0  0  0  0  0  0  0
   -8.9609    7.4492  -27.5634 H   0  0  0  0  0  0  0  0  0  0  0  0
  -10.5605    7.6112  -28.3210 H   0  0  0  0  0  0  0  0  0  0  0  0
  -11.1010   14.9257  -26.4395 H   0  0  0  0  0  0  0  0  0  0  0  0
  -14.6656   14.2411  -23.4277 H   0  0  0  0  0  0  0  0  0  0  0  0
  1  2  1  0
  2  3  1  0
  3  4  1  0
  4  5  1  0
  5  6  1  0
  5  7  1  0
  7  8  1  0
  8  9  2  0
  9 10  1  0
 10 11  2  0
 11 12  1  0
 12 13  2  0
 13 14  1  0
 14 15  2  0
 15 16  1  0
  4 17  1  0
  3 18  1  0
  6  2  1  0
 11  7  1  0
 15 10  1  0
  1 19  1  0
  1 20  1  0
  2 21  1  0
  3 22  1  0
  4 23  1  0
  5 24  1  0
  8 25  1  0
 13 26  1  0
 16 27  1  0
 16 28  1  0
 17 29  1  0
 18 30  1  0
M  RAD  1   1   2
M  END
$$$$

     RDKit          3D

 30 32  0  0  0  0  0  0  0  0999 V2000
  -13.5133   14.0973  -22.0333 C   0  0  0  0  0  3  0  0  0  0  0  0
  -13.2817   13.9588  -23.4991 C   0  0  0  0  0  0  0  0  0  0  0  0
  -11.9034   14.4813  -23.9238 C   0  0  0  0  0  0  0  0  0  0  0  0
  -11.8398   13.9070  -25.3406 C   0  0  0  0  0  0  0  0  0  0  0  0
  -12.8481   12.7940  -25.2722 C   0  0  0  0  0  0  0  0  0  0  0  0
  -13.1466   12.6141  -23.9035 O   0  0  0  0  0  0  0  0  0  0  0  0
  -12.3895   11.5825  -25.8797 N   0  0  0  0  0  0  0  0  0  0  0  0
  -12.8328   11.0853  -27.0477 C   0  0  0  0  0  0  0  0  0  0  0  0
  -12.1868    9.9369  -27.3160 N   0  0  0  0  0  0  0  0  0  0  0  0
  -11.3107    9.6762  -26.3156 C   0  0  0  0  0  0  0  0  0  0  0  0
  -11.4536   10.7289  -25.4161 C   0  0  0  0  0  0  0  0  0  0  0  0
  -10.7041   10.7310  -24.3235 N   0  0  0  0  0  0  0  0  0  0  0  0
   -9.8303    9.7423  -24.0924 C   0  0  0  0  0  0  0  0  0  0  0  0
   -9.6889    8.7219  -24.9603 N   0  0  0  0  0  0  0  0  0  0  0  0
  -10.4126    8.6567  -26.0816 C   0  0  0  0  0  0  0  0  0  0  0  0
  -10.2578    7.5786  -26.9907 N   0  0  0  0  0  0  0  0  0  0  0  0
  -10.5757   13.4977  -25.6844 O   0  0  0  0  0  0  0  0  0  0  0  0
  -10.9514   13.8177  -23.1755 O   0  0  0  0  0  0  0  0  0  0  0  0
  -13.7393   13.1704  -21.5064 H   0  0  0  0  0  0  0  0  0  0  0  0
  -12.8069   14.7688  -21.5483 H   0  0  0  0  0  0  0  0  0  0  0  0
  -14.0882   14.3911  -24.1083 H   0  0  0  0  0  0  0  0  0  0  0  0
  -11.8408   15.5647  -23.9017 H   0  0  0  0  0  0  0  0  0  0  0  0
  -12.2344   14.7173  -26.0055 H   0  0  0  0  0  0  0  0  0  0  0  0
  -13.8101   13.1189  -25.7332 H   0  0  0  0  0  0  0  0  0  0  0  0
  -13.5969   11.5073  -27.7153 H   0  0  0  0  0  0  0  0  0  0  0  0
   -9.1994    9.7250  -23.1927 H   0  0  0  0  0  0  0  0  0  0  0  0
  -10.0220    6.6128  -26.6725 H   0  0  0  0  0  0  0  0  0  0  0  0
  -10.3748    7.7079  -28.0283 H   0  0  0  0  0  0  0  0  0  0  0  0
   -9.9583   13.4104  -24.9132 H   0  0  0  0  0  0  0  0  0  0  0  0
  -11.3435   12.9976  -22.7348 H   0  0  0  0  0  0  0  0  0  0  0  0
  1  2  1  0
  2  3  1  0
  3  4  1  0
  4  5  1  0
  5  6  1  0
  5  7  1  0
  7  8  1  0
  8  9  2  0
  9 10  1  0
 10 11  2  0
 11 12  1  0
 12 13  2  0
 13 14  1  0
 14 15  2  0
 15 16  1  0
  4 17  1  0
  3 18  1  0
  6  2  1  0
 11  7  1  0
 15 10  1  0
  1 19  1  0
  1 20  1  0
  2 21  1  0
  3 22  1  0
  4 23  1  0
  5 24  1  0
  8 25  1  0
 13 26  1  0
 16 27  1  0
 16 28  1  0
 17 29  1  0
 18 30  1  0
M  RAD  1   1   2
M  END
$$$$

     RDKit          3D

 30 32  0  0  0  0  0  0  0  0999 V2000
  -14.3534   14.3502  -24.1878 C   0  0  0  0  0  3  0  0  0  0  0  0
  -12.9976   14.6965  -24.7656 C   0  0  0  0  0  0  0  0  0  0  0  0
  -11.9759   14.6944  -23.6688 C   0  0  0  0  0  0  0  0  0  0  0  0
  -11.2591   13.3867  -23.8924 C   0  0  0  0  0  0  0  0  0  0  0  0
  -11.5558   13.0800  -25.3297 C   0  0  0  0  0  0  0  0  0  0  0  0
  -12.6173   13.8279  -25.7378 O   0  0  0  0  0  0  0  0  0  0  0  0
  -11.8046   11.6553  -25.5425 N   0  0  0  0  0  0  0  0  0  0  0  0
  -12.9887   11.0280  -25.6586 C   0  0  0  0  0  0  0  0  0  0  0  0
  -12.8113    9.7074  -25.8473 N   0  0  0  0  0  0  0  0  0  0  0  0
  -11.5058    9.4558  -25.8567 C   0  0  0  0  0  0  0  0  0  0  0  0
  -10.8759   10.6705  -25.6666 C   0  0  0  0  0  0  0  0  0  0  0  0
   -9.5408   10.6747  -25.6381 N   0  0  0  0  0  0  0  0  0  0  0  0
   -8.8255    9.5452  -25.7877 C   0  0  0  0  0  0  0  0  0  0  0  0
   -9.4566    8.3685  -25.9724 N   0  0  0  0  0  0  0  0  0  0  0  0
  -10.7967    8.2678  -26.0150 C   0  0  0  0  0  0  0  0  0  0  0  0
  -11.4708    7.0354  -26.2087 N   0  0  0  0  0  0  0  0  0  0  0  0
  -11.6738   12.3906  -23.0247 O   0  0  0  0  0  0  0  0  0  0  0  0
  -12.6174   14.7732  -22.4556 O   0  0  0  0  0  0  0  0  0  0  0  0
  -14.9052   13.6172  -24.8081 H   0  0  0  0  0  0  0  0  0  0  0  0
  -14.2386   13.9311  -23.1748 H   0  0  0  0  0  0  0  0  0  0  0  0
  -13.0905   15.7136  -25.2032 H   0  0  0  0  0  0  0  0  0  0  0  0
  -11.2736   15.5350  -23.8612 H   0  0  0  0  0  0  0  0  0  0  0  0
  -10.1707   13.5326  -23.7236 H   0  0  0  0  0  0  0  0  0  0  0  0
  -10.6647   13.3966  -25.9485 H   0  0  0  0  0  0  0  0  0  0  0  0
  -13.9445   11.5610  -25.6009 H   0  0  0  0  0  0  0  0  0  0  0  0
   -7.7458    9.6335  -25.7523 H   0  0  0  0  0  0  0  0  0  0  0  0
  -12.3804    6.9449  -26.7129 H   0  0  0  0  0  0  0  0  0  0  0  0
  -11.0465    6.1727  -25.8337 H   0  0  0  0  0  0  0  0  0  0  0  0
  -12.3187   12.6956  -22.3505 H   0  0  0  0  0  0  0  0  0  0  0  0
  -12.0211   14.7765  -21.6779 H   0  0  0  0  0  0  0  0  0  0  0  0
  1  2  1  0
  2  3  1  0
  3  4  1  0
  4  5  1  0
  5  6  1  0
  5  7  1  0
  7  8  1  0
  8  9  2  0
  9 10  1  0
 10 11  2  0
 11 12  1  0
 12 13  2  0
 13 14  1  0
 14 15  2  0
 15 16  1  0
  4 17  1  0
  3 18  1  0
  6  2  1  0
 11  7  1  0
 15 10  1  0
  1 19  1  0
  1 20  1  0
  2 21  1  0
  3 22  1  0
  4 23  1  0
  5 24  1  0
  8 25  1  0
 13 26  1  0
 16 27  1  0
 16 28  1  0
 17 29  1  0
 18 30  1  0
M  RAD  1   1   2
M  END
$$$$

     RDKit          3D

 30 32  0  0  0  0  0  0  0  0999 V2000
  -13.2373   13.8322  -21.8431 C   0  0  0  0  0  3  0  0  0  0  0  0
  -12.2971   13.8938  -23.0116 C   0  0  0  0  0  0  0  0  0  0  0  0
  -13.0280   14.4373  -24.2125 C   0  0  0  0  0  0  0  0  0  0  0  0
  -12.1948   13.9372  -25.3551 C   0  0  0  0  0  0  0  0  0  0  0  0
  -11.2673   12.9508  -24.6552 C   0  0  0  0  0  0  0  0  0  0  0  0
  -11.9381   12.6136  -23.4613 O   0  0  0  0  0  0  0  0  0  0  0  0
  -11.1104   11.8079  -25.5225 N   0  0  0  0  0  0  0  0  0  0  0  0
  -11.0267   11.9217  -26.8609 C   0  0  0  0  0  0  0  0  0  0  0  0
  -10.8872   10.6764  -27.3561 N   0  0  0  0  0  0  0  0  0  0  0  0
  -10.8783    9.7632  -26.3792 C   0  0  0  0  0  0  0  0  0  0  0  0
  -11.0225   10.5033  -25.2049 C   0  0  0  0  0  0  0  0  0  0  0  0
  -11.0497    9.8544  -24.0300 N   0  0  0  0  0  0  0  0  0  0  0  0
  -10.9377    8.5110  -24.0115 C   0  0  0  0  0  0  0  0  0  0  0  0
  -10.7974    7.7645  -25.1218 N   0  0  0  0  0  0  0  0  0  0  0  0
  -10.7679    8.3929  -26.3050 C   0  0  0  0  0  0  0  0  0  0  0  0
  -10.6205    7.6300  -27.4958 N   0  0  0  0  0  0  0  0  0  0  0  0
  -13.0021   13.2899  -26.2810 O   0  0  0  0  0  0  0  0  0  0  0  0
  -13.0639   15.8278  -24.1484 O   0  0  0  0  0  0  0  0  0  0  0  0
  -13.3500   14.8278  -21.4140 H   0  0  0  0  0  0  0  0  0  0  0  0
  -12.8945   13.1449  -21.0510 H   0  0  0  0  0  0  0  0  0  0  0  0
  -11.3975   14.5231  -22.8123 H   0  0  0  0  0  0  0  0  0  0  0  0
  -14.0617   14.0175  -24.2260 H   0  0  0  0  0  0  0  0  0  0  0  0
  -11.5723   14.7257  -25.8110 H   0  0  0  0  0  0  0  0  0  0  0  0
  -10.3126   13.4136  -24.3550 H   0  0  0  0  0  0  0  0  0  0  0  0
  -11.0579   12.8093  -27.4868 H   0  0  0  0  0  0  0  0  0  0  0  0
  -10.9648    8.0313  -23.0429 H   0  0  0  0  0  0  0  0  0  0  0  0
  -10.2617    6.6475  -27.4722 H   0  0  0  0  0  0  0  0  0  0  0  0
  -10.8619    8.0127  -28.4412 H   0  0  0  0  0  0  0  0  0  0  0  0
  -13.9481   13.3492  -25.9973 H   0  0  0  0  0  0  0  0  0  0  0  0
  -13.1866   16.2453  -25.0254 H   0  0  0  0  0  0  0  0  0  0  0  0
  1  2  1  0
  2  3  1  0
  3  4  1  0
  4  5  1  0
  5  6  1  0
  5  7  1  0
  7  8  1  0
  8  9  2  0
  9 10  1  0
 10 11  2  0
 11 12  1  0
 12 13  2  0
 13 14  1  0
 14 15  2  0
 15 16  1  0
  4 17  1  0
  3 18  1  0
  6  2  1  0
 11  7  1  0
 15 10  1  0
  1 19  1  0
  1 20  1  0
  2 21  1  0
  3 22  1  0
  4 23  1  0
  5 24  1  0
  8 25  1  0
 13 26  1  0
 16 27  1  0
 16 28  1  0
 17 29  1  0
 18 30  1  0
M  RAD  1   1   2
M  END
$$$$

     RDKit          3D

 30 32  0  0  0  0  0  0  0  0999 V2000
  -11.7571   14.5992  -22.3870 C   0  0  0  0  0  3  0  0  0  0  0  0
  -11.3573   13.6458  -23.5091 C   0  0  0  0  0  0  0  0  0  0  0  0
  -11.8567   14.2650  -24.7977 C   0  0  0  0  0  0  0  0  0  0  0  0
  -13.2699   13.6890  -24.8341 C   0  0  0  0  0  0  0  0  0  0  0  0
  -12.9585   12.2929  -24.2989 C   0  0  0  0  0  0  0  0  0  0  0  0
  -12.0241   12.4679  -23.3158 O   0  0  0  0  0  0  0  0  0  0  0  0
  -12.4168   11.4732  -25.3523 N   0  0  0  0  0  0  0  0  0  0  0  0
  -12.6633   11.4963  -26.6579 C   0  0  0  0  0  0  0  0  0  0  0  0
  -11.9459   10.5579  -27.3020 N   0  0  0  0  0  0  0  0  0  0  0  0
  -11.2190    9.9200  -26.3577 C   0  0  0  0  0  0  0  0  0  0  0  0
  -11.5084   10.4863  -25.1403 C   0  0  0  0  0  0  0  0  0  0  0  0
  -10.9003   10.0133  -24.0412 N   0  0  0  0  0  0  0  0  0  0  0  0
  -10.0288    9.0070  -24.1416 C   0  0  0  0  0  0  0  0  0  0  0  0
   -9.7068    8.4130  -25.3120 N   0  0  0  0  0  0  0  0  0  0  0  0
  -10.3152    8.8869  -26.4078 C   0  0  0  0  0  0  0  0  0  0  0  0
   -9.9950    8.2811  -27.6483 N   0  0  0  0  0  0  0  0  0  0  0  0
  -14.0775   14.3383  -23.9009 O   0  0  0  0  0  0  0  0  0  0  0  0
  -11.1264   13.7747  -25.8514 O   0  0  0  0  0  0  0  0  0  0  0  0
  -10.9166   14.7871  -21.6892 H   0  0  0  0  0  0  0  0  0  0  0  0
  -12.1590   15.5514  -22.7706 H   0  0  0  0  0  0  0  0  0  0  0  0
  -10.2491   13.5310  -23.5684 H   0  0  0  0  0  0  0  0  0  0  0  0
  -11.8751   15.3727  -24.7432 H   0  0  0  0  0  0  0  0  0  0  0  0
  -13.7016   13.6773  -25.8319 H   0  0  0  0  0  0  0  0  0  0  0  0
  -13.8910   11.8118  -23.9245 H   0  0  0  0  0  0  0  0  0  0  0  0
  -13.3430   12.1681  -27.1565 H   0  0  0  0  0  0  0  0  0  0  0  0
   -9.5094    8.5911  -23.2637 H   0  0  0  0  0  0  0  0  0  0  0  0
  -10.6872    7.8924  -28.3226 H   0  0  0  0  0  0  0  0  0  0  0  0
   -8.9891    8.2176  -27.9105 H   0  0  0  0  0  0  0  0  0  0  0  0
  -14.1557   13.8170  -23.0546 H   0  0  0  0  0  0  0  0  0  0  0  0
  -10.3275   13.2451  -25.5754 H   0  0  0  0  0  0  0  0  0  0  0  0
  1  2  1  0
  2  3  1  0
  3  4  1  0
  4  5  1  0
  5  6  1  0
  5  7  1  0
  7  8  1  0
  8  9  2  0
  9 10  1  0
 10 11  2  0
 11 12  1  0
 12 13  2  0
 13 14  1  0
 14 15  2  0
 15 16  1  0
  4 17  1  0
  3 18  1  0
  6  2  1  0
 11  7  1  0
 15 10  1  0
  1 19  1  0
  1 20  1  0
  2 21  1  0
  3 22  1  0
  4 23  1  0
  5 24  1  0
  8 25  1  0
 13 26  1  0
 16 27  1  0
 16 28  1  0
 17 29  1  0
 18 30  1  0
M  RAD  1   1   2
M  END
$$$$

     RDKit          3D

 30 32  0  0  0  0  0  0  0  0999 V2000
  -14.1063   12.3752  -23.5711 C   0  0  0  0  0  3  0  0  0  0  0  0
  -13.2869   13.5648  -24.0009 C   0  0  0  0  0  0  0  0  0  0  0  0
  -11.8631   13.4130  -23.4564 C   0  0  0  0  0  0  0  0  0  0  0  0
  -11.0972   13.8623  -24.6787 C   0  0  0  0  0  0  0  0  0  0  0  0
  -11.9309   13.3347  -25.7691 C   0  0  0  0  0  0  0  0  0  0  0  0
  -13.2173   13.7353  -25.3528 O   0  0  0  0  0  0  0  0  0  0  0  0
  -11.9669   11.9284  -25.9496 N   0  0  0  0  0  0  0  0  0  0  0  0
  -13.0082   11.3426  -26.6185 C   0  0  0  0  0  0  0  0  0  0  0  0
  -12.8022   10.0152  -26.6488 N   0  0  0  0  0  0  0  0  0  0  0  0
  -11.6480    9.7565  -26.0097 C   0  0  0  0  0  0  0  0  0  0  0  0
  -11.1344   10.9599  -25.5767 C   0  0  0  0  0  0  0  0  0  0  0  0
   -9.9932   10.9853  -24.9130 N   0  0  0  0  0  0  0  0  0  0  0  0
   -9.3119    9.8492  -24.6464 C   0  0  0  0  0  0  0  0  0  0  0  0
   -9.8004    8.6693  -25.0622 N   0  0  0  0  0  0  0  0  0  0  0  0
  -10.9693    8.5838  -25.7486 C   0  0  0  0  0  0  0  0  0  0  0  0
  -11.4805    7.3279  -26.1861 N   0  0  0  0  0  0  0  0  0  0  0  0
   -9.7703   13.6242  -24.6771 O   0  0  0  0  0  0  0  0  0  0  0  0
  -11.7400   14.2806  -22.3902 O   0  0  0  0  0  0  0  0  0  0  0  0
  -15.1020   12.4716  -24.0755 H   0  0  0  0  0  0  0  0  0  0  0  0
  -14.3288   12.4676  -22.4813 H   0  0  0  0  0  0  0  0  0  0  0  0
  -13.7833   14.4672  -23.5660 H   0  0  0  0  0  0  0  0  0  0  0  0
  -11.6604   12.3867  -23.1538 H   0  0  0  0  0  0  0  0  0  0  0  0
  -11.2254   14.9890  -24.6944 H   0  0  0  0  0  0  0  0  0  0  0  0
  -11.6503   13.8224  -26.7237 H   0  0  0  0  0  0  0  0  0  0  0  0
  -13.8722   11.8151  -27.0656 H   0  0  0  0  0  0  0  0  0  0  0  0
   -8.3805    9.8392  -24.1081 H   0  0  0  0  0  0  0  0  0  0  0  0
  -12.1123    7.2663  -27.0124 H   0  0  0  0  0  0  0  0  0  0  0  0
  -11.2394    6.4407  -25.6963 H   0  0  0  0  0  0  0  0  0  0  0  0
   -9.1959   14.4140  -24.6116 H   0  0  0  0  0  0  0  0  0  0  0  0
  -10.8132   14.5812  -22.2558 H   0  0  0  0  0  0  0  0  0  0  0  0
  1  2  1  0
  2  3  1  0
  3  4  1  0
  4  5  1  0
  5  6  1  0
  5  7  1  0
  7  8  1  0
  8  9  2  0
  9 10  1  0
 10 11  2  0
 11 12  1  0
 12 13  2  0
 13 14  1  0
 14 15  2  0
 15 16  1  0
  4 17  1  0
  3 18  1  0
  6  2  1  0
 11  7  1  0
 15 10  1  0
  1 19  1  0
  1 20  1  0
  2 21  1  0
  3 22  1  0
  4 23  1  0
  5 24  1  0
  8 25  1  0
 13 26  1  0
 16 27  1  0
 16 28  1  0
 17 29  1  0
 18 30  1  0
M  RAD  1   1   2
M  END
$$$$

     RDKit          3D

 30 32  0  0  0  0  0  0  0  0999 V2000
  -12.0660   14.1666  -21.7842 C   0  0  0  0  0  3  0  0  0  0  0  0
  -11.7118   14.1668  -23.2394 C   0  0  0  0  0  0  0  0  0  0  0  0
  -12.9557   14.4900  -24.0530 C   0  0  0  0  0  0  0  0  0  0  0  0
  -12.8968   13.4295  -25.1540 C   0  0  0  0  0  0  0  0  0  0  0  0
  -11.4263   13.0686  -25.0732 C   0  0  0  0  0  0  0  0  0  0  0  0
  -11.2697   12.9257  -23.6910 O   0  0  0  0  0  0  0  0  0  0  0  0
  -11.1066   11.8737  -25.7955 N   0  0  0  0  0  0  0  0  0  0  0  0
  -10.6662   11.7955  -27.0671 C   0  0  0  0  0  0  0  0  0  0  0  0
  -10.4718   10.4921  -27.4047 N   0  0  0  0  0  0  0  0  0  0  0  0
  -10.7854    9.7304  -26.3551 C   0  0  0  0  0  0  0  0  0  0  0  0
  -11.1793   10.5954  -25.3580 C   0  0  0  0  0  0  0  0  0  0  0  0
  -11.5529   10.0747  -24.1757 N   0  0  0  0  0  0  0  0  0  0  0  0
  -11.5338    8.7311  -23.9946 C   0  0  0  0  0  0  0  0  0  0  0  0
  -11.1451    7.9044  -24.9831 N   0  0  0  0  0  0  0  0  0  0  0  0
  -10.7576    8.3537  -26.1933 C   0  0  0  0  0  0  0  0  0  0  0  0
  -10.3491    7.4681  -27.2294 N   0  0  0  0  0  0  0  0  0  0  0  0
  -13.1426   13.9660  -26.3998 O   0  0  0  0  0  0  0  0  0  0  0  0
  -14.1102   14.3760  -23.3048 O   0  0  0  0  0  0  0  0  0  0  0  0
  -11.6955   13.2338  -21.3250 H   0  0  0  0  0  0  0  0  0  0  0  0
  -11.6127   15.0500  -21.3113 H   0  0  0  0  0  0  0  0  0  0  0  0
  -10.8829   14.8896  -23.4513 H   0  0  0  0  0  0  0  0  0  0  0  0
  -12.8690   15.4659  -24.5481 H   0  0  0  0  0  0  0  0  0  0  0  0
  -13.5556   12.6152  -24.8639 H   0  0  0  0  0  0  0  0  0  0  0  0
  -10.8591   13.9522  -25.3868 H   0  0  0  0  0  0  0  0  0  0  0  0
  -10.5035   12.6668  -27.6956 H   0  0  0  0  0  0  0  0  0  0  0  0
  -11.8359    8.2910  -23.0354 H   0  0  0  0  0  0  0  0  0  0  0  0
  -10.5206    7.6180  -28.2466 H   0  0  0  0  0  0  0  0  0  0  0  0
   -9.8369    6.5939  -26.9836 H   0  0  0  0  0  0  0  0  0  0  0  0
  -14.0805   13.7977  -26.7011 H   0  0  0  0  0  0  0  0  0  0  0  0
  -14.7206   15.1033  -23.5529 H   0  0  0  0  0  0  0  0  0  0  0  0
  1  2  1  0
  2  3  1  0
  3  4  1  0
  4  5  1  0
  5  6  1  0
  5  7  1  0
  7  8  1  0
  8  9  2  0
  9 10  1  0
 10 11  2  0
 11 12  1  0
 12 13  2  0
 13 14  1  0
 14 15  2  0
 15 16  1  0
  4 17  1  0
  3 18  1  0
  6  2  1  0
 11  7  1  0
 15 10  1  0
  1 19  1  0
  1 20  1  0
  2 21  1  0
  3 22  1  0
  4 23  1  0
  5 24  1  0
  8 25  1  0
 13 26  1  0
 16 27  1  0
 16 28  1  0
 17 29  1  0
 18 30  1  0
M  RAD  1   1   2
M  END
$$$$

     RDKit          3D

 30 32  0  0  0  0  0  0  0  0999 V2000
  -11.1881   14.7550  -22.5947 C   0  0  0  0  0  3  0  0  0  0  0  0
  -12.3084   13.7801  -22.9539 C   0  0  0  0  0  0  0  0  0  0  0  0
  -13.2795   14.4400  -23.8815 C   0  0  0  0  0  0  0  0  0  0  0  0
  -13.0705   13.6306  -25.1672 C   0  0  0  0  0  0  0  0  0  0  0  0
  -12.6307   12.3138  -24.5776 C   0  0  0  0  0  0  0  0  0  0  0  0
  -11.7316   12.7175  -23.5985 O   0  0  0  0  0  0  0  0  0  0  0  0
  -12.0334   11.4417  -25.5547 N   0  0  0  0  0  0  0  0  0  0  0  0
  -11.9551   11.5981  -26.8897 C   0  0  0  0  0  0  0  0  0  0  0  0
  -11.3076   10.5313  -27.4084 N   0  0  0  0  0  0  0  0  0  0  0  0
  -10.9721    9.6927  -26.4022 C   0  0  0  0  0  0  0  0  0  0  0  0
  -11.4368   10.2781  -25.2272 C   0  0  0  0  0  0  0  0  0  0  0  0
  -11.2213    9.6236  -24.0647 N   0  0  0  0  0  0  0  0  0  0  0  0
  -10.5834    8.4414  -23.9898 C   0  0  0  0  0  0  0  0  0  0  0  0
  -10.1483    7.9051  -25.1432 N   0  0  0  0  0  0  0  0  0  0  0  0
  -10.3198    8.4861  -26.3357 C   0  0  0  0  0  0  0  0  0  0  0  0
   -9.8623    7.9240  -27.5557 N   0  0  0  0  0  0  0  0  0  0  0  0
  -12.0233   14.2679  -25.8443 O   0  0  0  0  0  0  0  0  0  0  0  0
  -13.0547   15.7811  -24.0671 O   0  0  0  0  0  0  0  0  0  0  0  0
  -10.1923   14.3574  -22.8668 H   0  0  0  0  0  0  0  0  0  0  0  0
  -11.3521   15.7258  -23.1467 H   0  0  0  0  0  0  0  0  0  0  0  0
  -12.8167   13.5228  -22.0118 H   0  0  0  0  0  0  0  0  0  0  0  0
  -14.3475   14.2854  -23.5580 H   0  0  0  0  0  0  0  0  0  0  0  0
  -13.9853   13.5528  -25.7580 H   0  0  0  0  0  0  0  0  0  0  0  0
  -13.5132   11.8758  -24.0698 H   0  0  0  0  0  0  0  0  0  0  0  0
  -12.3669   12.4637  -27.3957 H   0  0  0  0  0  0  0  0  0  0  0  0
  -10.4203    7.9294  -23.0355 H   0  0  0  0  0  0  0  0  0  0  0  0
  -10.0520    6.9188  -27.7348 H   0  0  0  0  0  0  0  0  0  0  0  0
   -9.3551    8.4835  -28.2539 H   0  0  0  0  0  0  0  0  0  0  0  0
  -12.1756   15.2503  -25.8726 H   0  0  0  0  0  0  0  0  0  0  0  0
  -13.9131   16.3137  -24.0447 H   0  0  0  0  0  0  0  0  0  0  0  0
  1  2  1  0
  2  3  1  0
  3  4  1  0
  4  5  1  0
  5  6  1  0
  5  7  1  0
  7  8  1  0
  8  9  2  0
  9 10  1  0
 10 11  2  0
 11 12  1  0
 12 13  2  0
 13 14  1  0
 14 15  2  0
 15 16  1  0
  4 17  1  0
  3 18  1  0
  6  2  1  0
 11  7  1  0
 15 10  1  0
  1 19  1  0
  1 20  1  0
  2 21  1  0
  3 22  1  0
  4 23  1  0
  5 24  1  0
  8 25  1  0
 13 26  1  0
 16 27  1  0
 16 28  1  0
 17 29  1  0
 18 30  1  0
M  RAD  1   1   2
M  END
$$$$

     RDKit          3D

 30 32  0  0  0  0  0  0  0  0999 V2000
  -10.5874   13.6314  -22.3951 C   0  0  0  0  0  3  0  0  0  0  0  0
  -11.2367   13.3078  -23.6962 C   0  0  0  0  0  0  0  0  0  0  0  0
  -11.8149   14.5684  -24.3319 C   0  0  0  0  0  0  0  0  0  0  0  0
  -12.7199   13.9493  -25.3961 C   0  0  0  0  0  0  0  0  0  0  0  0
  -12.8810   12.5472  -24.8901 C   0  0  0  0  0  0  0  0  0  0  0  0
  -12.3485   12.5056  -23.6018 O   0  0  0  0  0  0  0  0  0  0  0  0
  -12.2564   11.5551  -25.7292 N   0  0  0  0  0  0  0  0  0  0  0  0
  -12.2047   11.4820  -27.0684 C   0  0  0  0  0  0  0  0  0  0  0  0
  -11.5193   10.3894  -27.4583 N   0  0  0  0  0  0  0  0  0  0  0  0
  -11.1215    9.7457  -26.3490 C   0  0  0  0  0  0  0  0  0  0  0  0
  -11.5791   10.4692  -25.2665 C   0  0  0  0  0  0  0  0  0  0  0  0
  -11.3142   10.0368  -24.0188 N   0  0  0  0  0  0  0  0  0  0  0  0
  -10.6083    8.9073  -23.8236 C   0  0  0  0  0  0  0  0  0  0  0  0
  -10.1645    8.2056  -24.8867 N   0  0  0  0  0  0  0  0  0  0  0  0
  -10.3956    8.5841  -26.1614 C   0  0  0  0  0  0  0  0  0  0  0  0
   -9.9298    7.8476  -27.2847 N   0  0  0  0  0  0  0  0  0  0  0  0
  -13.9030   14.6375  -25.5374 O   0  0  0  0  0  0  0  0  0  0  0  0
  -12.5423   15.2382  -23.3608 O   0  0  0  0  0  0  0  0  0  0  0  0
  -11.2513   14.0003  -21.6154 H   0  0  0  0  0  0  0  0  0  0  0  0
   -9.8053   12.9393  -22.0761 H   0  0  0  0  0  0  0  0  0  0  0  0
  -10.4700   12.8370  -24.3517 H   0  0  0  0  0  0  0  0  0  0  0  0
  -10.9948   15.1488  -24.7609 H   0  0  0  0  0  0  0  0  0  0  0  0
  -12.1630   14.0111  -26.3584 H   0  0  0  0  0  0  0  0  0  0  0  0
  -13.9895   12.3589  -24.8062 H   0  0  0  0  0  0  0  0  0  0  0  0
  -12.6767   12.2408  -27.6990 H   0  0  0  0  0  0  0  0  0  0  0  0
  -10.3878    8.5474  -22.8059 H   0  0  0  0  0  0  0  0  0  0  0  0
  -10.4462    7.0023  -27.6074 H   0  0  0  0  0  0  0  0  0  0  0  0
   -9.0523    8.1751  -27.7829 H   0  0  0  0  0  0  0  0  0  0  0  0
  -14.1243   14.8451  -26.4996 H   0  0  0  0  0  0  0  0  0  0  0  0
  -13.0875   14.5745  -22.8646 H   0  0  0  0  0  0  0  0  0  0  0  0
  1  2  1  0
  2  3  1  0
  3  4  1  0
  4  5  1  0
  5  6  1  0
  5  7  1  0
  7  8  1  0
  8  9  2  0
  9 10  1  0
 10 11  2  0
 11 12  1  0
 12 13  2  0
 13 14  1  0
 14 15  2  0
 15 16  1  0
  4 17  1  0
  3 18  1  0
  6  2  1  0
 11  7  1  0
 15 10  1  0
  1 19  1  0
  1 20  1  0
  2 21  1  0
  3 22  1  0
  4 23  1  0
  5 24  1  0
  8 25  1  0
 13 26  1  0
 16 27  1  0
 16 28  1  0
 17 29  1  0
 18 30  1  0
M  RAD  1   1   2
M  END
$$$$

     RDKit          3D

 30 32  0  0  0  0  0  0  0  0999 V2000
  -14.4000   14.6388  -23.5266 C   0  0  0  0  0  3  0  0  0  0  0  0
  -13.2262   14.6191  -24.4951 C   0  0  0  0  0  0  0  0  0  0  0  0
  -11.9731   14.5570  -23.6746 C   0  0  0  0  0  0  0  0  0  0  0  0
  -11.4757   13.1351  -23.9605 C   0  0  0  0  0  0  0  0  0  0  0  0
  -12.0411   12.9307  -25.3599 C   0  0  0  0  0  0  0  0  0  0  0  0
  -13.3161   13.4624  -25.2365 O   0  0  0  0  0  0  0  0  0  0  0  0
  -12.1158   11.5252  -25.7085 N   0  0  0  0  0  0  0  0  0  0  0  0
  -13.1783   10.8186  -26.1498 C   0  0  0  0  0  0  0  0  0  0  0  0
  -12.8094    9.5580  -26.3493 N   0  0  0  0  0  0  0  0  0  0  0  0
  -11.5122    9.4003  -26.0496 C   0  0  0  0  0  0  0  0  0  0  0  0
  -11.0756   10.6587  -25.6416 C   0  0  0  0  0  0  0  0  0  0  0  0
   -9.7919   10.7617  -25.2843 N   0  0  0  0  0  0  0  0  0  0  0  0
   -8.9150    9.7496  -25.2938 C   0  0  0  0  0  0  0  0  0  0  0  0
   -9.3412    8.5377  -25.6883 N   0  0  0  0  0  0  0  0  0  0  0  0
  -10.6279    8.3457  -26.0671 C   0  0  0  0  0  0  0  0  0  0  0  0
  -11.0634    7.0603  -26.4812 N   0  0  0  0  0  0  0  0  0  0  0  0
  -10.0975   13.0684  -23.9558 O   0  0  0  0  0  0  0  0  0  0  0  0
  -12.1666   14.7806  -22.3335 O   0  0  0  0  0  0  0  0  0  0  0  0
  -14.1132   15.0088  -22.5299 H   0  0  0  0  0  0  0  0  0  0  0  0
  -15.2551   15.2150  -23.9247 H   0  0  0  0  0  0  0  0  0  0  0  0
  -13.2280   15.5051  -25.1659 H   0  0  0  0  0  0  0  0  0  0  0  0
  -11.2094   15.2636  -24.0565 H   0  0  0  0  0  0  0  0  0  0  0  0
  -11.9541   12.4636  -23.2280 H   0  0  0  0  0  0  0  0  0  0  0  0
  -11.4025   13.5080  -26.0531 H   0  0  0  0  0  0  0  0  0  0  0  0
  -14.1557   11.2557  -26.3011 H   0  0  0  0  0  0  0  0  0  0  0  0
   -7.8649    9.8703  -24.9930 H   0  0  0  0  0  0  0  0  0  0  0  0
  -10.7895    6.6386  -27.3946 H   0  0  0  0  0  0  0  0  0  0  0  0
  -11.6839    6.5056  -25.8532 H   0  0  0  0  0  0  0  0  0  0  0  0
   -9.6628   13.7641  -23.4299 H   0  0  0  0  0  0  0  0  0  0  0  0
  -11.3956   14.3962  -21.8362 H   0  0  0  0  0  0  0  0  0  0  0  0
  1  2  1  0
  2  3  1  0
  3  4  1  0
  4  5  1  0
  5  6  1  0
  5  7  1  0
  7  8  1  0
  8  9  2  0
  9 10  1  0
 10 11  2  0
 11 12  1  0
 12 13  2  0
 13 14  1  0
 14 15  2  0
 15 16  1  0
  4 17  1  0
  3 18  1  0
  6  2  1  0
 11  7  1  0
 15 10  1  0
  1 19  1  0
  1 20  1  0
  2 21  1  0
  3 22  1  0
  4 23  1  0
  5 24  1  0
  8 25  1  0
 13 26  1  0
 16 27  1  0
 16 28  1  0
 17 29  1  0
 18 30  1  0
M  RAD  1   1   2
M  END
$$$$

     RDKit          3D

 30 32  0  0  0  0  0  0  0  0999 V2000
  -12.7437   13.8418  -21.6959 C   0  0  0  0  0  3  0  0  0  0  0  0
  -12.9995   13.5459  -23.1574 C   0  0  0  0  0  0  0  0  0  0  0  0
  -12.6046   14.7134  -24.0241 C   0  0  0  0  0  0  0  0  0  0  0  0
  -12.2036   13.9857  -25.3055 C   0  0  0  0  0  0  0  0  0  0  0  0
  -11.5366   12.7706  -24.6615 C   0  0  0  0  0  0  0  0  0  0  0  0
  -12.3233   12.4373  -23.5970 O   0  0  0  0  0  0  0  0  0  0  0  0
  -11.3148   11.7135  -25.5990 N   0  0  0  0  0  0  0  0  0  0  0  0
  -11.2385   11.7891  -26.9290 C   0  0  0  0  0  0  0  0  0  0  0  0
  -11.0196   10.5542  -27.4158 N   0  0  0  0  0  0  0  0  0  0  0  0
  -10.9545    9.6826  -26.4045 C   0  0  0  0  0  0  0  0  0  0  0  0
  -11.1440   10.4313  -25.2502 C   0  0  0  0  0  0  0  0  0  0  0  0
  -11.1257    9.7891  -24.0554 N   0  0  0  0  0  0  0  0  0  0  0  0
  -10.9298    8.4634  -23.9866 C   0  0  0  0  0  0  0  0  0  0  0  0
  -10.7429    7.7091  -25.0884 N   0  0  0  0  0  0  0  0  0  0  0  0
  -10.7528    8.3070  -26.3084 C   0  0  0  0  0  0  0  0  0  0  0  0
  -10.5599    7.5461  -27.4872 N   0  0  0  0  0  0  0  0  0  0  0  0
  -11.3023   14.7194  -26.0532 O   0  0  0  0  0  0  0  0  0  0  0  0
  -13.6309   15.6085  -24.2367 O   0  0  0  0  0  0  0  0  0  0  0  0
  -13.0133   14.9036  -21.5187 H   0  0  0  0  0  0  0  0  0  0  0  0
  -13.3515   13.1730  -21.0744 H   0  0  0  0  0  0  0  0  0  0  0  0
  -14.0953   13.3611  -23.3537 H   0  0  0  0  0  0  0  0  0  0  0  0
  -11.6716   15.2014  -23.6405 H   0  0  0  0  0  0  0  0  0  0  0  0
  -13.0936   13.6576  -25.8790 H   0  0  0  0  0  0  0  0  0  0  0  0
  -10.5662   13.1707  -24.2437 H   0  0  0  0  0  0  0  0  0  0  0  0
  -11.3405   12.7194  -27.5146 H   0  0  0  0  0  0  0  0  0  0  0  0
  -10.9214    7.9812  -23.0088 H   0  0  0  0  0  0  0  0  0  0  0  0
   -9.6210    7.2753  -27.8300 H   0  0  0  0  0  0  0  0  0  0  0  0
  -11.3932    7.2489  -28.0278 H   0  0  0  0  0  0  0  0  0  0  0  0
  -11.7519   15.0280  -26.8885 H   0  0  0  0  0  0  0  0  0  0  0  0
  -13.2274   16.5314  -24.2732 H   0  0  0  0  0  0  0  0  0  0  0  0
  1  2  1  0
  2  3  1  0
  3  4  1  0
  4  5  1  0
  5  6  1  0
  5  7  1  0
  7  8  1  0
  8  9  2  0
  9 10  1  0
 10 11  2  0
 11 12  1  0
 12 13  2  0
 13 14  1  0
 14 15  2  0
 15 16  1  0
  4 17  1  0
  3 18  1  0
  6  2  1  0
 11  7  1  0
 15 10  1  0
  1 19  1  0
  1 20  1  0
  2 21  1  0
  3 22  1  0
  4 23  1  0
  5 24  1  0
  8 25  1  0
 13 26  1  0
 16 27  1  0
 16 28  1  0
 17 29  1  0
 18 30  1  0
M  RAD  1   1   2
M  END
$$$$

     RDKit          3D

 30 32  0  0  0  0  0  0  0  0999 V2000
  -11.8825   14.2639  -21.8125 C   0  0  0  0  0  3  0  0  0  0  0  0
  -11.9021   14.3659  -23.3316 C   0  0  0  0  0  0  0  0  0  0  0  0
  -13.3178   14.3448  -23.8674 C   0  0  0  0  0  0  0  0  0  0  0  0
  -13.1214   13.4572  -25.1050 C   0  0  0  0  0  0  0  0  0  0  0  0
  -12.1148   12.4856  -24.5021 C   0  0  0  0  0  0  0  0  0  0  0  0
  -11.2197   13.3252  -23.8933 O   0  0  0  0  0  0  0  0  0  0  0  0
  -11.5579   11.5912  -25.4502 N   0  0  0  0  0  0  0  0  0  0  0  0
  -11.1608   11.8195  -26.7071 C   0  0  0  0  0  0  0  0  0  0  0  0
  -10.6872   10.6877  -27.2646 N   0  0  0  0  0  0  0  0  0  0  0  0
  -10.7767    9.6996  -26.3531 C   0  0  0  0  0  0  0  0  0  0  0  0
  -11.3220   10.2844  -25.2297 C   0  0  0  0  0  0  0  0  0  0  0  0
  -11.5156    9.4904  -24.1592 N   0  0  0  0  0  0  0  0  0  0  0  0
  -11.1955    8.1982  -24.1823 C   0  0  0  0  0  0  0  0  0  0  0  0
  -10.6643    7.6122  -25.2659 N   0  0  0  0  0  0  0  0  0  0  0  0
  -10.4513    8.3545  -26.3557 C   0  0  0  0  0  0  0  0  0  0  0  0
   -9.8921    7.7782  -27.5235 N   0  0  0  0  0  0  0  0  0  0  0  0
  -12.5431   14.2657  -26.0693 O   0  0  0  0  0  0  0  0  0  0  0  0
  -13.8021   15.5836  -24.1836 O   0  0  0  0  0  0  0  0  0  0  0  0
  -11.9549   13.1714  -21.5838 H   0  0  0  0  0  0  0  0  0  0  0  0
  -10.8654   14.6009  -21.4786 H   0  0  0  0  0  0  0  0  0  0  0  0
  -11.4881   15.3673  -23.5823 H   0  0  0  0  0  0  0  0  0  0  0  0
  -13.9625   13.7691  -23.1679 H   0  0  0  0  0  0  0  0  0  0  0  0
  -14.0411   12.9638  -25.4124 H   0  0  0  0  0  0  0  0  0  0  0  0
  -12.6731   11.9473  -23.6939 H   0  0  0  0  0  0  0  0  0  0  0  0
  -11.1947   12.7601  -27.2434 H   0  0  0  0  0  0  0  0  0  0  0  0
  -11.3688    7.6019  -23.3010 H   0  0  0  0  0  0  0  0  0  0  0  0
  -10.4613    7.1093  -28.0857 H   0  0  0  0  0  0  0  0  0  0  0  0
   -8.9271    7.9901  -27.8566 H   0  0  0  0  0  0  0  0  0  0  0  0
  -11.6510   14.5415  -25.6980 H   0  0  0  0  0  0  0  0  0  0  0  0
  -14.6542   15.4886  -24.6391 H   0  0  0  0  0  0  0  0  0  0  0  0
  1  2  1  0
  2  3  1  0
  3  4  1  0
  4  5  1  0
  5  6  1  0
  5  7  1  0
  7  8  1  0
  8  9  2  0
  9 10  1  0
 10 11  2  0
 11 12  1  0
 12 13  2  0
 13 14  1  0
 14 15  2  0
 15 16  1  0
  4 17  1  0
  3 18  1  0
  6  2  1  0
 11  7  1  0
 15 10  1  0
  1 19  1  0
  1 20  1  0
  2 21  1  0
  3 22  1  0
  4 23  1  0
  5 24  1  0
  8 25  1  0
 13 26  1  0
 16 27  1  0
 16 28  1  0
 17 29  1  0
 18 30  1  0
M  RAD  1   1   2
M  END
$$$$

     RDKit          3D

 30 32  0  0  0  0  0  0  0  0999 V2000
  -14.5188   14.9352  -24.0938 C   0  0  0  0  0  3  0  0  0  0  0  0
  -13.3782   14.0621  -24.5535 C   0  0  0  0  0  0  0  0  0  0  0  0
  -12.0435   14.5968  -24.0556 C   0  0  0  0  0  0  0  0  0  0  0  0
  -11.1973   13.3235  -24.1945 C   0  0  0  0  0  0  0  0  0  0  0  0
  -12.2234   12.2685  -23.8807 C   0  0  0  0  0  0  0  0  0  0  0  0
  -13.4594   12.8584  -23.8642 O   0  0  0  0  0  0  0  0  0  0  0  0
  -12.2107   11.1766  -24.8260 N   0  0  0  0  0  0  0  0  0  0  0  0
  -13.2471   10.6735  -25.5215 C   0  0  0  0  0  0  0  0  0  0  0  0
  -12.8025    9.6616  -26.2894 N   0  0  0  0  0  0  0  0  0  0  0  0
  -11.4892    9.4965  -26.1051 C   0  0  0  0  0  0  0  0  0  0  0  0
  -11.1190   10.4565  -25.1789 C   0  0  0  0  0  0  0  0  0  0  0  0
   -9.8260   10.5048  -24.8143 N   0  0  0  0  0  0  0  0  0  0  0  0
   -8.9466    9.6392  -25.3467 C   0  0  0  0  0  0  0  0  0  0  0  0
   -9.3037    8.7096  -26.2432 N   0  0  0  0  0  0  0  0  0  0  0  0
  -10.5948    8.6044  -26.6567 C   0  0  0  0  0  0  0  0  0  0  0  0
  -11.0078    7.6306  -27.6055 N   0  0  0  0  0  0  0  0  0  0  0  0
  -10.1955   13.3782  -23.2208 O   0  0  0  0  0  0  0  0  0  0  0  0
  -11.5636   15.6319  -24.8054 O   0  0  0  0  0  0  0  0  0  0  0  0
  -14.0919   15.7506  -23.4753 H   0  0  0  0  0  0  0  0  0  0  0  0
  -15.1380   15.2657  -24.9245 H   0  0  0  0  0  0  0  0  0  0  0  0
  -13.3772   13.8748  -25.6395 H   0  0  0  0  0  0  0  0  0  0  0  0
  -12.1782   14.8366  -22.9773 H   0  0  0  0  0  0  0  0  0  0  0  0
  -10.7899   13.2489  -25.2157 H   0  0  0  0  0  0  0  0  0  0  0  0
  -12.0159   11.9083  -22.8357 H   0  0  0  0  0  0  0  0  0  0  0  0
  -14.2790   10.9965  -25.4985 H   0  0  0  0  0  0  0  0  0  0  0  0
   -7.9082    9.6752  -25.0563 H   0  0  0  0  0  0  0  0  0  0  0  0
  -11.1304    7.8691  -28.6083 H   0  0  0  0  0  0  0  0  0  0  0  0
  -11.1924    6.6520  -27.2875 H   0  0  0  0  0  0  0  0  0  0  0  0
   -9.2804   13.4418  -23.6341 H   0  0  0  0  0  0  0  0  0  0  0  0
  -10.5922   15.5905  -24.9962 H   0  0  0  0  0  0  0  0  0  0  0  0
  1  2  1  0
  2  3  1  0
  3  4  1  0
  4  5  1  0
  5  6  1  0
  5  7  1  0
  7  8  1  0
  8  9  2  0
  9 10  1  0
 10 11  2  0
 11 12  1  0
 12 13  2  0
 13 14  1  0
 14 15  2  0
 15 16  1  0
  4 17  1  0
  3 18  1  0
  6  2  1  0
 11  7  1  0
 15 10  1  0
  1 19  1  0
  1 20  1  0
  2 21  1  0
  3 22  1  0
  4 23  1  0
  5 24  1  0
  8 25  1  0
 13 26  1  0
 16 27  1  0
 16 28  1  0
 17 29  1  0
 18 30  1  0
M  RAD  1   1   2
M  END
$$$$

     RDKit          3D

 30 32  0  0  0  0  0  0  0  0999 V2000
  -11.7251   14.1243  -21.6923 C   0  0  0  0  0  3  0  0  0  0  0  0
  -12.3150   13.7141  -23.0002 C   0  0  0  0  0  0  0  0  0  0  0  0
  -12.2476   14.7864  -24.0555 C   0  0  0  0  0  0  0  0  0  0  0  0
  -12.2512   13.9724  -25.3492 C   0  0  0  0  0  0  0  0  0  0  0  0
  -12.3006   12.5716  -24.8285 C   0  0  0  0  0  0  0  0  0  0  0  0
  -11.5738   12.6810  -23.6211 O   0  0  0  0  0  0  0  0  0  0  0  0
  -11.7564   11.5939  -25.7109 N   0  0  0  0  0  0  0  0  0  0  0  0
  -11.5058   11.6746  -27.0486 C   0  0  0  0  0  0  0  0  0  0  0  0
  -10.9921   10.5125  -27.4628 N   0  0  0  0  0  0  0  0  0  0  0  0
  -10.9098    9.6884  -26.4102 C   0  0  0  0  0  0  0  0  0  0  0  0
  -11.3836   10.3523  -25.3130 C   0  0  0  0  0  0  0  0  0  0  0  0
  -11.4092    9.7324  -24.1034 N   0  0  0  0  0  0  0  0  0  0  0  0
  -10.9807    8.4687  -23.9323 C   0  0  0  0  0  0  0  0  0  0  0  0
  -10.5153    7.8185  -25.0139 N   0  0  0  0  0  0  0  0  0  0  0  0
  -10.4649    8.3803  -26.2395 C   0  0  0  0  0  0  0  0  0  0  0  0
   -9.9809    7.7177  -27.3876 N   0  0  0  0  0  0  0  0  0  0  0  0
  -13.4397   14.2129  -26.0480 O   0  0  0  0  0  0  0  0  0  0  0  0
  -13.3753   15.6064  -24.0390 O   0  0  0  0  0  0  0  0  0  0  0  0
  -12.1864   13.5335  -20.8886 H   0  0  0  0  0  0  0  0  0  0  0  0
  -10.6341   13.9966  -21.7107 H   0  0  0  0  0  0  0  0  0  0  0  0
  -13.3567   13.3401  -22.9255 H   0  0  0  0  0  0  0  0  0  0  0  0
  -11.3591   15.4138  -23.9735 H   0  0  0  0  0  0  0  0  0  0  0  0
  -11.3786   14.2017  -25.9714 H   0  0  0  0  0  0  0  0  0  0  0  0
  -13.3516   12.3456  -24.5182 H   0  0  0  0  0  0  0  0  0  0  0  0
  -11.7135   12.5682  -27.6249 H   0  0  0  0  0  0  0  0  0  0  0  0
  -11.0091    7.9853  -22.9490 H   0  0  0  0  0  0  0  0  0  0  0  0
   -9.0734    8.0132  -27.7882 H   0  0  0  0  0  0  0  0  0  0  0  0
  -10.5427    6.9581  -27.7966 H   0  0  0  0  0  0  0  0  0  0  0  0
  -13.7441   13.3395  -26.4428 H   0  0  0  0  0  0  0  0  0  0  0  0
  -14.1579   14.9889  -24.0528 H   0  0  0  0  0  0  0  0  0  0  0  0
  1  2  1  0
  2  3  1  0
  3  4  1  0
  4  5  1  0
  5  6  1  0
  5  7  1  0
  7  8  1  0
  8  9  2  0
  9 10  1  0
 10 11  2  0
 11 12  1  0
 12 13  2  0
 13 14  1  0
 14 15  2  0
 15 16  1  0
  4 17  1  0
  3 18  1  0
  6  2  1  0
 11  7  1  0
 15 10  1  0
  1 19  1  0
  1 20  1  0
  2 21  1  0
  3 22  1  0
  4 23  1  0
  5 24  1  0
  8 25  1  0
 13 26  1  0
 16 27  1  0
 16 28  1  0
 17 29  1  0
 18 30  1  0
M  RAD  1   1   2
M  END
$$$$

     RDKit          3D

 30 32  0  0  0  0  0  0  0  0999 V2000
  -11.2682   14.5375  -22.2922 C   0  0  0  0  0  3  0  0  0  0  0  0
  -11.8510   14.6871  -23.6949 C   0  0  0  0  0  0  0  0  0  0  0  0
  -13.2847   14.2481  -23.6525 C   0  0  0  0  0  0  0  0  0  0  0  0
  -13.2390   12.9198  -24.4067 C   0  0  0  0  0  0  0  0  0  0  0  0
  -11.7467   12.5926  -24.3321 C   0  0  0  0  0  0  0  0  0  0  0  0
  -11.1900   13.8369  -24.5932 O   0  0  0  0  0  0  0  0  0  0  0  0
  -11.4594   11.6287  -25.3669 N   0  0  0  0  0  0  0  0  0  0  0  0
  -11.5137   11.8858  -26.6824 C   0  0  0  0  0  0  0  0  0  0  0  0
  -11.1782   10.7308  -27.2969 N   0  0  0  0  0  0  0  0  0  0  0  0
  -10.9224    9.7818  -26.3832 C   0  0  0  0  0  0  0  0  0  0  0  0
  -11.1005   10.3493  -25.1379 C   0  0  0  0  0  0  0  0  0  0  0  0
  -10.9123    9.6278  -23.9937 N   0  0  0  0  0  0  0  0  0  0  0  0
  -10.5456    8.3359  -24.0650 C   0  0  0  0  0  0  0  0  0  0  0  0
  -10.3650    7.7574  -25.2660 N   0  0  0  0  0  0  0  0  0  0  0  0
  -10.5449    8.4497  -26.4133 C   0  0  0  0  0  0  0  0  0  0  0  0
  -10.3606    7.8615  -27.6826 N   0  0  0  0  0  0  0  0  0  0  0  0
  -13.5737   13.1935  -25.7241 O   0  0  0  0  0  0  0  0  0  0  0  0
  -14.0710   15.1838  -24.2722 O   0  0  0  0  0  0  0  0  0  0  0  0
  -11.9348   13.9185  -21.6596 H   0  0  0  0  0  0  0  0  0  0  0  0
  -10.3233   13.9742  -22.3971 H   0  0  0  0  0  0  0  0  0  0  0  0
  -11.7280   15.7143  -24.0860 H   0  0  0  0  0  0  0  0  0  0  0  0
  -13.6186   13.9974  -22.6216 H   0  0  0  0  0  0  0  0  0  0  0  0
  -13.8598   12.1501  -23.9443 H   0  0  0  0  0  0  0  0  0  0  0  0
  -11.4823   12.1977  -23.3337 H   0  0  0  0  0  0  0  0  0  0  0  0
  -11.7680   12.8094  -27.1943 H   0  0  0  0  0  0  0  0  0  0  0  0
  -10.3844    7.7229  -23.1876 H   0  0  0  0  0  0  0  0  0  0  0  0
  -10.9506    7.0543  -27.9522 H   0  0  0  0  0  0  0  0  0  0  0  0
   -9.6413    8.2465  -28.3186 H   0  0  0  0  0  0  0  0  0  0  0  0
  -14.4938   12.9723  -25.9612 H   0  0  0  0  0  0  0  0  0  0  0  0
  -14.6452   14.8413  -24.9880 H   0  0  0  0  0  0  0  0  0  0  0  0
  1  2  1  0
  2  3  1  0
  3  4  1  0
  4  5  1  0
  5  6  1  0
  5  7  1  0
  7  8  1  0
  8  9  2  0
  9 10  1  0
 10 11  2  0
 11 12  1  0
 12 13  2  0
 13 14  1  0
 14 15  2  0
 15 16  1  0
  4 17  1  0
  3 18  1  0
  6  2  1  0
 11  7  1  0
 15 10  1  0
  1 19  1  0
  1 20  1  0
  2 21  1  0
  3 22  1  0
  4 23  1  0
  5 24  1  0
  8 25  1  0
 13 26  1  0
 16 27  1  0
 16 28  1  0
 17 29  1  0
 18 30  1  0
M  RAD  1   1   2
M  END
$$$$

     RDKit          3D

 30 32  0  0  0  0  0  0  0  0999 V2000
  -11.0042   15.1568  -22.7794 C   0  0  0  0  0  3  0  0  0  0  0  0
  -12.0482   14.1355  -23.0518 C   0  0  0  0  0  0  0  0  0  0  0  0
  -12.9373   14.5208  -24.2420 C   0  0  0  0  0  0  0  0  0  0  0  0
  -13.6481   13.1694  -24.3983 C   0  0  0  0  0  0  0  0  0  0  0  0
  -12.5484   12.2332  -24.1314 C   0  0  0  0  0  0  0  0  0  0  0  0
  -11.5122   12.9308  -23.4986 O   0  0  0  0  0  0  0  0  0  0  0  0
  -12.0186   11.5245  -25.2514 N   0  0  0  0  0  0  0  0  0  0  0  0
  -12.0596   11.7861  -26.5667 C   0  0  0  0  0  0  0  0  0  0  0  0
  -11.4177   10.8289  -27.2466 N   0  0  0  0  0  0  0  0  0  0  0  0
  -10.9542    9.9339  -26.3569 C   0  0  0  0  0  0  0  0  0  0  0  0
  -11.3241   10.3583  -25.1032 C   0  0  0  0  0  0  0  0  0  0  0  0
  -10.9721    9.6192  -24.0243 N   0  0  0  0  0  0  0  0  0  0  0  0
  -10.2691    8.4761  -24.1275 C   0  0  0  0  0  0  0  0  0  0  0  0
   -9.9170    8.0780  -25.3614 N   0  0  0  0  0  0  0  0  0  0  0  0
  -10.2261    8.7517  -26.4753 C   0  0  0  0  0  0  0  0  0  0  0  0
   -9.8439    8.3129  -27.7690 N   0  0  0  0  0  0  0  0  0  0  0  0
  -14.3197   13.0452  -25.5672 O   0  0  0  0  0  0  0  0  0  0  0  0
  -12.1065   14.7467  -25.3052 O   0  0  0  0  0  0  0  0  0  0  0  0
  -10.0336   14.9765  -23.2799 H   0  0  0  0  0  0  0  0  0  0  0  0
  -10.8091   15.1912  -21.6863 H   0  0  0  0  0  0  0  0  0  0  0  0
  -12.6919   13.9996  -22.1593 H   0  0  0  0  0  0  0  0  0  0  0  0
  -13.6238   15.3255  -23.9995 H   0  0  0  0  0  0  0  0  0  0  0  0
  -14.3895   13.1574  -23.5446 H   0  0  0  0  0  0  0  0  0  0  0  0
  -12.8992   11.4821  -23.3675 H   0  0  0  0  0  0  0  0  0  0  0  0
  -12.5352   12.6362  -27.0134 H   0  0  0  0  0  0  0  0  0  0  0  0
   -9.9941    7.8921  -23.2404 H   0  0  0  0  0  0  0  0  0  0  0  0
  -10.4810    7.6758  -28.2920 H   0  0  0  0  0  0  0  0  0  0  0  0
   -8.9301    8.6535  -28.1413 H   0  0  0  0  0  0  0  0  0  0  0  0
  -15.2183   12.7116  -25.4195 H   0  0  0  0  0  0  0  0  0  0  0  0
  -11.1502   14.8842  -25.0168 H   0  0  0  0  0  0  0  0  0  0  0  0
  1  2  1  0
  2  3  1  0
  3  4  1  0
  4  5  1  0
  5  6  1  0
  5  7  1  0
  7  8  1  0
  8  9  2  0
  9 10  1  0
 10 11  2  0
 11 12  1  0
 12 13  2  0
 13 14  1  0
 14 15  2  0
 15 16  1  0
  4 17  1  0
  3 18  1  0
  6  2  1  0
 11  7  1  0
 15 10  1  0
  1 19  1  0
  1 20  1  0
  2 21  1  0
  3 22  1  0
  4 23  1  0
  5 24  1  0
  8 25  1  0
 13 26  1  0
 16 27  1  0
 16 28  1  0
 17 29  1  0
 18 30  1  0
M  RAD  1   1   2
M  END
$$$$

     RDKit          3D

 30 32  0  0  0  0  0  0  0  0999 V2000
  -13.7121   13.4989  -22.3841 C   0  0  0  0  0  3  0  0  0  0  0  0
  -12.2887   13.7346  -22.8968 C   0  0  0  0  0  0  0  0  0  0  0  0
  -12.3888   14.7892  -23.9818 C   0  0  0  0  0  0  0  0  0  0  0  0
  -12.3363   13.8859  -25.2204 C   0  0  0  0  0  0  0  0  0  0  0  0
  -11.2953   12.8800  -24.7096 C   0  0  0  0  0  0  0  0  0  0  0  0
  -11.7566   12.6070  -23.4533 O   0  0  0  0  0  0  0  0  0  0  0  0
  -11.1854   11.7463  -25.5669 N   0  0  0  0  0  0  0  0  0  0  0  0
  -11.1787   11.7908  -26.9088 C   0  0  0  0  0  0  0  0  0  0  0  0
  -11.0597   10.5249  -27.3980 N   0  0  0  0  0  0  0  0  0  0  0  0
  -10.9933    9.7020  -26.3355 C   0  0  0  0  0  0  0  0  0  0  0  0
  -11.0712   10.4582  -25.1931 C   0  0  0  0  0  0  0  0  0  0  0  0
  -11.0217    9.8100  -24.0125 N   0  0  0  0  0  0  0  0  0  0  0  0
  -10.9000    8.4702  -23.9879 C   0  0  0  0  0  0  0  0  0  0  0  0
  -10.8238    7.7311  -25.1073 N   0  0  0  0  0  0  0  0  0  0  0  0
  -10.8685    8.3287  -26.3202 C   0  0  0  0  0  0  0  0  0  0  0  0
  -10.7902    7.5727  -27.5229 N   0  0  0  0  0  0  0  0  0  0  0  0
  -11.9148   14.5529  -26.3388 O   0  0  0  0  0  0  0  0  0  0  0  0
  -13.5420   15.5245  -23.9181 O   0  0  0  0  0  0  0  0  0  0  0  0
  -13.7967   13.7550  -21.3033 H   0  0  0  0  0  0  0  0  0  0  0  0
  -14.4510   14.1098  -22.9122 H   0  0  0  0  0  0  0  0  0  0  0  0
  -11.6948   14.1731  -22.0741 H   0  0  0  0  0  0  0  0  0  0  0  0
  -11.4632   15.4084  -24.0265 H   0  0  0  0  0  0  0  0  0  0  0  0
  -13.3349   13.4265  -25.2966 H   0  0  0  0  0  0  0  0  0  0  0  0
  -10.3507   13.4517  -24.6340 H   0  0  0  0  0  0  0  0  0  0  0  0
  -11.2508   12.6411  -27.5718 H   0  0  0  0  0  0  0  0  0  0  0  0
  -10.8597    7.9435  -23.0360 H   0  0  0  0  0  0  0  0  0  0  0  0
   -9.8849    7.3113  -27.9570 H   0  0  0  0  0  0  0  0  0  0  0  0
  -11.6656    7.2658  -27.9923 H   0  0  0  0  0  0  0  0  0  0  0  0
  -12.6566   14.5082  -27.0168 H   0  0  0  0  0  0  0  0  0  0  0  0
  -13.4090   16.2673  -23.2955 H   0  0  0  0  0  0  0  0  0  0  0  0
  1  2  1  0
  2  3  1  0
  3  4  1  0
  4  5  1  0
  5  6  1  0
  5  7  1  0
  7  8  1  0
  8  9  2  0
  9 10  1  0
 10 11  2  0
 11 12  1  0
 12 13  2  0
 13 14  1  0
 14 15  2  0
 15 16  1  0
  4 17  1  0
  3 18  1  0
  6  2  1  0
 11  7  1  0
 15 10  1  0
  1 19  1  0
  1 20  1  0
  2 21  1  0
  3 22  1  0
  4 23  1  0
  5 24  1  0
  8 25  1  0
 13 26  1  0
 16 27  1  0
 16 28  1  0
 17 29  1  0
 18 30  1  0
M  RAD  1   1   2
M  END
$$$$

     RDKit          3D

 30 32  0  0  0  0  0  0  0  0999 V2000
  -11.9643   14.2385  -21.7656 C   0  0  0  0  0  3  0  0  0  0  0  0
  -12.6505   13.7442  -23.0190 C   0  0  0  0  0  0  0  0  0  0  0  0
  -12.5358   14.7634  -24.1113 C   0  0  0  0  0  0  0  0  0  0  0  0
  -12.4161   13.9145  -25.3590 C   0  0  0  0  0  0  0  0  0  0  0  0
  -12.6076   12.5164  -24.7979 C   0  0  0  0  0  0  0  0  0  0  0  0
  -11.9890   12.6390  -23.5500 O   0  0  0  0  0  0  0  0  0  0  0  0
  -11.9956   11.5364  -25.6318 N   0  0  0  0  0  0  0  0  0  0  0  0
  -11.8407   11.6355  -26.9613 C   0  0  0  0  0  0  0  0  0  0  0  0
  -11.2263   10.5258  -27.3930 N   0  0  0  0  0  0  0  0  0  0  0  0
  -10.9880    9.7211  -26.3537 C   0  0  0  0  0  0  0  0  0  0  0  0
  -11.4751   10.3614  -25.2400 C   0  0  0  0  0  0  0  0  0  0  0  0
  -11.3439    9.7282  -24.0550 N   0  0  0  0  0  0  0  0  0  0  0  0
  -10.7550    8.5116  -23.9761 C   0  0  0  0  0  0  0  0  0  0  0  0
  -10.2805    7.8998  -25.0990 N   0  0  0  0  0  0  0  0  0  0  0  0
  -10.3787    8.4716  -26.3013 C   0  0  0  0  0  0  0  0  0  0  0  0
   -9.8837    7.8296  -27.4613 N   0  0  0  0  0  0  0  0  0  0  0  0
  -11.1454   14.0089  -25.9249 O   0  0  0  0  0  0  0  0  0  0  0  0
  -13.6507   15.5622  -24.2557 O   0  0  0  0  0  0  0  0  0  0  0  0
  -12.2609   15.2625  -21.5184 H   0  0  0  0  0  0  0  0  0  0  0  0
  -12.1652   13.5070  -20.9629 H   0  0  0  0  0  0  0  0  0  0  0  0
  -13.7055   13.4895  -22.8639 H   0  0  0  0  0  0  0  0  0  0  0  0
  -11.6088   15.3579  -23.9635 H   0  0  0  0  0  0  0  0  0  0  0  0
  -13.1970   14.1018  -26.0967 H   0  0  0  0  0  0  0  0  0  0  0  0
  -13.6576   12.2734  -24.6111 H   0  0  0  0  0  0  0  0  0  0  0  0
  -12.1714   12.4844  -27.5401 H   0  0  0  0  0  0  0  0  0  0  0  0
  -10.6771    8.0541  -23.0092 H   0  0  0  0  0  0  0  0  0  0  0  0
  -10.5586    7.4083  -28.1215 H   0  0  0  0  0  0  0  0  0  0  0  0
   -8.8668    7.7900  -27.6328 H   0  0  0  0  0  0  0  0  0  0  0  0
  -11.1235   14.6139  -26.7080 H   0  0  0  0  0  0  0  0  0  0  0  0
  -14.1534   15.7112  -23.4371 H   0  0  0  0  0  0  0  0  0  0  0  0
  1  2  1  0
  2  3  1  0
  3  4  1  0
  4  5  1  0
  5  6  1  0
  5  7  1  0
  7  8  1  0
  8  9  2  0
  9 10  1  0
 10 11  2  0
 11 12  1  0
 12 13  2  0
 13 14  1  0
 14 15  2  0
 15 16  1  0
  4 17  1  0
  3 18  1  0
  6  2  1  0
 11  7  1  0
 15 10  1  0
  1 19  1  0
  1 20  1  0
  2 21  1  0
  3 22  1  0
  4 23  1  0
  5 24  1  0
  8 25  1  0
 13 26  1  0
 16 27  1  0
 16 28  1  0
 17 29  1  0
 18 30  1  0
M  RAD  1   1   2
M  END
$$$$

     RDKit          3D

 30 32  0  0  0  0  0  0  0  0999 V2000
  -13.4809   14.4724  -22.1341 C   0  0  0  0  0  3  0  0  0  0  0  0
  -13.5408   14.1194  -23.6018 C   0  0  0  0  0  0  0  0  0  0  0  0
  -12.3699   14.7244  -24.3524 C   0  0  0  0  0  0  0  0  0  0  0  0
  -11.3050   13.6456  -24.1290 C   0  0  0  0  0  0  0  0  0  0  0  0
  -12.1384   12.4188  -23.9870 C   0  0  0  0  0  0  0  0  0  0  0  0
  -13.4515   12.7741  -23.8515 O   0  0  0  0  0  0  0  0  0  0  0  0
  -11.9318   11.4751  -25.0887 N   0  0  0  0  0  0  0  0  0  0  0  0
  -12.4896   11.5234  -26.3111 C   0  0  0  0  0  0  0  0  0  0  0  0
  -12.0714   10.4905  -27.0677 N   0  0  0  0  0  0  0  0  0  0  0  0
  -11.2385    9.7803  -26.3141 C   0  0  0  0  0  0  0  0  0  0  0  0
  -11.1400   10.3837  -25.0707 C   0  0  0  0  0  0  0  0  0  0  0  0
  -10.3469    9.8476  -24.1177 N   0  0  0  0  0  0  0  0  0  0  0  0
   -9.6549    8.7254  -24.3846 C   0  0  0  0  0  0  0  0  0  0  0  0
   -9.7571    8.1467  -25.5949 N   0  0  0  0  0  0  0  0  0  0  0  0
  -10.5179    8.6195  -26.5789 C   0  0  0  0  0  0  0  0  0  0  0  0
  -10.6044    7.9882  -27.8412 N   0  0  0  0  0  0  0  0  0  0  0  0
  -10.3902   13.6026  -25.1548 O   0  0  0  0  0  0  0  0  0  0  0  0
  -12.6977   14.8703  -25.6759 O   0  0  0  0  0  0  0  0  0  0  0  0
  -13.0525   13.6879  -21.5068 H   0  0  0  0  0  0  0  0  0  0  0  0
  -14.4601   14.8588  -21.7576 H   0  0  0  0  0  0  0  0  0  0  0  0
  -14.4819   14.4867  -24.0772 H   0  0  0  0  0  0  0  0  0  0  0  0
  -12.0803   15.6758  -23.8670 H   0  0  0  0  0  0  0  0  0  0  0  0
  -10.7953   13.9497  -23.1763 H   0  0  0  0  0  0  0  0  0  0  0  0
  -11.8210   11.9089  -23.0376 H   0  0  0  0  0  0  0  0  0  0  0  0
  -13.1837   12.3146  -26.6046 H   0  0  0  0  0  0  0  0  0  0  0  0
   -9.0016    8.2692  -23.6238 H   0  0  0  0  0  0  0  0  0  0  0  0
  -10.6262    8.5068  -28.7235 H   0  0  0  0  0  0  0  0  0  0  0  0
  -10.6478    6.9482  -27.8704 H   0  0  0  0  0  0  0  0  0  0  0  0
   -9.6573   14.2399  -24.9638 H   0  0  0  0  0  0  0  0  0  0  0  0
  -13.6489   14.7273  -25.8683 H   0  0  0  0  0  0  0  0  0  0  0  0
  1  2  1  0
  2  3  1  0
  3  4  1  0
  4  5  1  0
  5  6  1  0
  5  7  1  0
  7  8  1  0
  8  9  2  0
  9 10  1  0
 10 11  2  0
 11 12  1  0
 12 13  2  0
 13 14  1  0
 14 15  2  0
 15 16  1  0
  4 17  1  0
  3 18  1  0
  6  2  1  0
 11  7  1  0
 15 10  1  0
  1 19  1  0
  1 20  1  0
  2 21  1  0
  3 22  1  0
  4 23  1  0
  5 24  1  0
  8 25  1  0
 13 26  1  0
 16 27  1  0
 16 28  1  0
 17 29  1  0
 18 30  1  0
M  RAD  1   1   2
M  END
$$$$

     RDKit          3D

 30 32  0  0  0  0  0  0  0  0999 V2000
  -12.1116   14.1702  -21.6917 C   0  0  0  0  0  3  0  0  0  0  0  0
  -11.8012   14.1192  -23.1590 C   0  0  0  0  0  0  0  0  0  0  0  0
  -12.9552   14.6108  -24.0086 C   0  0  0  0  0  0  0  0  0  0  0  0
  -12.6586   13.8121  -25.2854 C   0  0  0  0  0  0  0  0  0  0  0  0
  -12.2589   12.5063  -24.6418 C   0  0  0  0  0  0  0  0  0  0  0  0
  -11.4281   12.8901  -23.6226 O   0  0  0  0  0  0  0  0  0  0  0  0
  -11.6850   11.5784  -25.5620 N   0  0  0  0  0  0  0  0  0  0  0  0
  -11.3932   11.7829  -26.8512 C   0  0  0  0  0  0  0  0  0  0  0  0
  -10.8705   10.6483  -27.3378 N   0  0  0  0  0  0  0  0  0  0  0  0
  -10.8157    9.7015  -26.3838 C   0  0  0  0  0  0  0  0  0  0  0  0
  -11.3447   10.3169  -25.2443 C   0  0  0  0  0  0  0  0  0  0  0  0
  -11.4128    9.5815  -24.1088 N   0  0  0  0  0  0  0  0  0  0  0  0
  -10.9913    8.3046  -24.0618 C   0  0  0  0  0  0  0  0  0  0  0  0
  -10.4838    7.7099  -25.1495 N   0  0  0  0  0  0  0  0  0  0  0  0
  -10.3888    8.3909  -26.3153 C   0  0  0  0  0  0  0  0  0  0  0  0
   -9.8578    7.7978  -27.4891 N   0  0  0  0  0  0  0  0  0  0  0  0
  -13.7354   13.7243  -26.1159 O   0  0  0  0  0  0  0  0  0  0  0  0
  -12.9344   15.9624  -24.2274 O   0  0  0  0  0  0  0  0  0  0  0  0
  -13.1496   14.4914  -21.4819 H   0  0  0  0  0  0  0  0  0  0  0  0
  -11.7758   13.3041  -21.1226 H   0  0  0  0  0  0  0  0  0  0  0  0
  -10.9655   14.8598  -23.3301 H   0  0  0  0  0  0  0  0  0  0  0  0
  -13.9280   14.2221  -23.6441 H   0  0  0  0  0  0  0  0  0  0  0  0
  -11.7615   14.2791  -25.7309 H   0  0  0  0  0  0  0  0  0  0  0  0
  -13.1960   12.1006  -24.1651 H   0  0  0  0  0  0  0  0  0  0  0  0
  -11.5646   12.7114  -27.3669 H   0  0  0  0  0  0  0  0  0  0  0  0
  -11.0384    7.6990  -23.1582 H   0  0  0  0  0  0  0  0  0  0  0  0
  -10.4315    7.1259  -28.0222 H   0  0  0  0  0  0  0  0  0  0  0  0
   -8.9003    8.0290  -27.8207 H   0  0  0  0  0  0  0  0  0  0  0  0
  -13.5079   14.2405  -26.9540 H   0  0  0  0  0  0  0  0  0  0  0  0
  -13.4866   16.3942  -23.5303 H   0  0  0  0  0  0  0  0  0  0  0  0
  1  2  1  0
  2  3  1  0
  3  4  1  0
  4  5  1  0
  5  6  1  0
  5  7  1  0
  7  8  1  0
  8  9  2  0
  9 10  1  0
 10 11  2  0
 11 12  1  0
 12 13  2  0
 13 14  1  0
 14 15  2  0
 15 16  1  0
  4 17  1  0
  3 18  1  0
  6  2  1  0
 11  7  1  0
 15 10  1  0
  1 19  1  0
  1 20  1  0
  2 21  1  0
  3 22  1  0
  4 23  1  0
  5 24  1  0
  8 25  1  0
 13 26  1  0
 16 27  1  0
 16 28  1  0
 17 29  1  0
 18 30  1  0
M  RAD  1   1   2
M  END
$$$$

     RDKit          3D

 30 32  0  0  0  0  0  0  0  0999 V2000
  -14.3590   15.0288  -23.3445 C   0  0  0  0  0  3  0  0  0  0  0  0
  -13.2766   14.0020  -23.3123 C   0  0  0  0  0  0  0  0  0  0  0  0
  -11.9704   14.5977  -23.7155 C   0  0  0  0  0  0  0  0  0  0  0  0
  -11.4471   13.5708  -24.7274 C   0  0  0  0  0  0  0  0  0  0  0  0
  -12.2788   12.3563  -24.2994 C   0  0  0  0  0  0  0  0  0  0  0  0
  -13.5239   12.9178  -24.1688 O   0  0  0  0  0  0  0  0  0  0  0  0
  -12.1934   11.2834  -25.2305 N   0  0  0  0  0  0  0  0  0  0  0  0
  -13.0306   10.9186  -26.2186 C   0  0  0  0  0  0  0  0  0  0  0  0
  -12.5623    9.8406  -26.8578 N   0  0  0  0  0  0  0  0  0  0  0  0
  -11.4026    9.4862  -26.2883 C   0  0  0  0  0  0  0  0  0  0  0  0
  -11.1836   10.3978  -25.2711 C   0  0  0  0  0  0  0  0  0  0  0  0
  -10.0533   10.2537  -24.5288 N   0  0  0  0  0  0  0  0  0  0  0  0
   -9.1593    9.2894  -24.7323 C   0  0  0  0  0  0  0  0  0  0  0  0
   -9.3577    8.3986  -25.7142 N   0  0  0  0  0  0  0  0  0  0  0  0
  -10.4611    8.4978  -26.4773 C   0  0  0  0  0  0  0  0  0  0  0  0
  -10.6922    7.5647  -27.5239 N   0  0  0  0  0  0  0  0  0  0  0  0
  -10.0977   13.3502  -24.5945 O   0  0  0  0  0  0  0  0  0  0  0  0
  -12.0775   15.8536  -24.2508 O   0  0  0  0  0  0  0  0  0  0  0  0
  -15.2719   14.7684  -22.8139 H   0  0  0  0  0  0  0  0  0  0  0  0
  -14.4737   15.5514  -24.2899 H   0  0  0  0  0  0  0  0  0  0  0  0
  -13.2526   13.5858  -22.2647 H   0  0  0  0  0  0  0  0  0  0  0  0
  -11.2679   14.5533  -22.8535 H   0  0  0  0  0  0  0  0  0  0  0  0
  -11.7519   13.9045  -25.7375 H   0  0  0  0  0  0  0  0  0  0  0  0
  -11.8902   12.0606  -23.3004 H   0  0  0  0  0  0  0  0  0  0  0  0
  -13.9689   11.4117  -26.4875 H   0  0  0  0  0  0  0  0  0  0  0  0
   -8.2999    9.2397  -24.1123 H   0  0  0  0  0  0  0  0  0  0  0  0
   -9.9398    7.4075  -28.2154 H   0  0  0  0  0  0  0  0  0  0  0  0
  -11.6148    7.0812  -27.5433 H   0  0  0  0  0  0  0  0  0  0  0  0
   -9.7074   13.3759  -25.5195 H   0  0  0  0  0  0  0  0  0  0  0  0
  -11.2244   16.3349  -24.2181 H   0  0  0  0  0  0  0  0  0  0  0  0
  1  2  1  0
  2  3  1  0
  3  4  1  0
  4  5  1  0
  5  6  1  0
  5  7  1  0
  7  8  1  0
  8  9  2  0
  9 10  1  0
 10 11  2  0
 11 12  1  0
 12 13  2  0
 13 14  1  0
 14 15  2  0
 15 16  1  0
  4 17  1  0
  3 18  1  0
  6  2  1  0
 11  7  1  0
 15 10  1  0
  1 19  1  0
  1 20  1  0
  2 21  1  0
  3 22  1  0
  4 23  1  0
  5 24  1  0
  8 25  1  0
 13 26  1  0
 16 27  1  0
 16 28  1  0
 17 29  1  0
 18 30  1  0
M  RAD  1   1   2
M  END
$$$$

     RDKit          3D

 30 32  0  0  0  0  0  0  0  0999 V2000
  -14.4363   15.1467  -24.1729 C   0  0  0  0  0  3  0  0  0  0  0  0
  -13.2913   14.2442  -23.8140 C   0  0  0  0  0  0  0  0  0  0  0  0
  -12.0307   14.5511  -24.5739 C   0  0  0  0  0  0  0  0  0  0  0  0
  -11.2379   13.2718  -24.3318 C   0  0  0  0  0  0  0  0  0  0  0  0
  -12.3419   12.2834  -24.0405 C   0  0  0  0  0  0  0  0  0  0  0  0
  -13.5452   12.9324  -24.2712 O   0  0  0  0  0  0  0  0  0  0  0  0
  -12.2275   11.1327  -24.9050 N   0  0  0  0  0  0  0  0  0  0  0  0
  -13.2618   10.5444  -25.5309 C   0  0  0  0  0  0  0  0  0  0  0  0
  -12.8042    9.4969  -26.2584 N   0  0  0  0  0  0  0  0  0  0  0  0
  -11.4810    9.4047  -26.1065 C   0  0  0  0  0  0  0  0  0  0  0  0
  -11.1318   10.4356  -25.2560 C   0  0  0  0  0  0  0  0  0  0  0  0
   -9.8462   10.6062  -24.9086 N   0  0  0  0  0  0  0  0  0  0  0  0
   -8.9232    9.7474  -25.4129 C   0  0  0  0  0  0  0  0  0  0  0  0
   -9.2628    8.7433  -26.2412 N   0  0  0  0  0  0  0  0  0  0  0  0
  -10.5356    8.5264  -26.6220 C   0  0  0  0  0  0  0  0  0  0  0  0
  -10.9107    7.4642  -27.5008 N   0  0  0  0  0  0  0  0  0  0  0  0
  -10.4807   13.4045  -23.1684 O   0  0  0  0  0  0  0  0  0  0  0  0
  -11.3783   15.6721  -24.1411 O   0  0  0  0  0  0  0  0  0  0  0  0
  -15.2626   14.9242  -23.4601 H   0  0  0  0  0  0  0  0  0  0  0  0
  -14.1294   16.2005  -24.0129 H   0  0  0  0  0  0  0  0  0  0  0  0
  -13.0487   14.2248  -22.7436 H   0  0  0  0  0  0  0  0  0  0  0  0
  -12.2306   14.5776  -25.6699 H   0  0  0  0  0  0  0  0  0  0  0  0
  -10.6328   12.9969  -25.2123 H   0  0  0  0  0  0  0  0  0  0  0  0
  -12.3565   11.9809  -22.9528 H   0  0  0  0  0  0  0  0  0  0  0  0
  -14.3069   10.8188  -25.4959 H   0  0  0  0  0  0  0  0  0  0  0  0
   -7.9021    9.9253  -25.1044 H   0  0  0  0  0  0  0  0  0  0  0  0
  -11.2953    6.5806  -27.1036 H   0  0  0  0  0  0  0  0  0  0  0  0
  -10.8098    7.5475  -28.5431 H   0  0  0  0  0  0  0  0  0  0  0  0
  -10.6272   12.6529  -22.5376 H   0  0  0  0  0  0  0  0  0  0  0  0
  -11.1202   16.2048  -24.9488 H   0  0  0  0  0  0  0  0  0  0  0  0
  1  2  1  0
  2  3  1  0
  3  4  1  0
  4  5  1  0
  5  6  1  0
  5  7  1  0
  7  8  1  0
  8  9  2  0
  9 10  1  0
 10 11  2  0
 11 12  1  0
 12 13  2  0
 13 14  1  0
 14 15  2  0
 15 16  1  0
  4 17  1  0
  3 18  1  0
  6  2  1  0
 11  7  1  0
 15 10  1  0
  1 19  1  0
  1 20  1  0
  2 21  1  0
  3 22  1  0
  4 23  1  0
  5 24  1  0
  8 25  1  0
 13 26  1  0
 16 27  1  0
 16 28  1  0
 17 29  1  0
 18 30  1  0
M  RAD  1   1   2
M  END
$$$$

     RDKit          3D

 30 32  0  0  0  0  0  0  0  0999 V2000
  -12.4008   13.9862  -21.6615 C   0  0  0  0  0  3  0  0  0  0  0  0
  -12.6584   13.7603  -23.1008 C   0  0  0  0  0  0  0  0  0  0  0  0
  -11.7915   14.5723  -24.0269 C   0  0  0  0  0  0  0  0  0  0  0  0
  -12.0564   13.8708  -25.3437 C   0  0  0  0  0  0  0  0  0  0  0  0
  -12.6262   12.5267  -24.8713 C   0  0  0  0  0  0  0  0  0  0  0  0
  -12.3377   12.4505  -23.5248 O   0  0  0  0  0  0  0  0  0  0  0  0
  -12.0287   11.4783  -25.6495 N   0  0  0  0  0  0  0  0  0  0  0  0
  -11.9983   11.5216  -27.0047 C   0  0  0  0  0  0  0  0  0  0  0  0
  -11.3790   10.4072  -27.4376 N   0  0  0  0  0  0  0  0  0  0  0  0
  -11.0159    9.6588  -26.3943 C   0  0  0  0  0  0  0  0  0  0  0  0
  -11.4319   10.3465  -25.2767 C   0  0  0  0  0  0  0  0  0  0  0  0
  -11.1875    9.8064  -24.0791 N   0  0  0  0  0  0  0  0  0  0  0  0
  -10.5515    8.6186  -23.9333 C   0  0  0  0  0  0  0  0  0  0  0  0
  -10.1597    7.9754  -25.0462 N   0  0  0  0  0  0  0  0  0  0  0  0
  -10.3749    8.4640  -26.2781 C   0  0  0  0  0  0  0  0  0  0  0  0
   -9.9424    7.7500  -27.4536 N   0  0  0  0  0  0  0  0  0  0  0  0
  -13.0197   14.5039  -26.0982 O   0  0  0  0  0  0  0  0  0  0  0  0
  -12.1664   15.9105  -24.0757 O   0  0  0  0  0  0  0  0  0  0  0  0
  -13.1854   14.6668  -21.2532 H   0  0  0  0  0  0  0  0  0  0  0  0
  -11.4232   14.4483  -21.4296 H   0  0  0  0  0  0  0  0  0  0  0  0
  -13.7298   13.9252  -23.3422 H   0  0  0  0  0  0  0  0  0  0  0  0
  -10.7307   14.4412  -23.7306 H   0  0  0  0  0  0  0  0  0  0  0  0
  -11.1351   13.7215  -25.9364 H   0  0  0  0  0  0  0  0  0  0  0  0
  -13.7121   12.4837  -24.9935 H   0  0  0  0  0  0  0  0  0  0  0  0
  -12.3877   12.2901  -27.6597 H   0  0  0  0  0  0  0  0  0  0  0  0
  -10.3668    8.2039  -22.9397 H   0  0  0  0  0  0  0  0  0  0  0  0
  -10.3341    8.0389  -28.3767 H   0  0  0  0  0  0  0  0  0  0  0  0
   -9.2675    6.9780  -27.3879 H   0  0  0  0  0  0  0  0  0  0  0  0
  -13.9374   14.2847  -25.7976 H   0  0  0  0  0  0  0  0  0  0  0  0
  -12.0032   16.3050  -24.9775 H   0  0  0  0  0  0  0  0  0  0  0  0
  1  2  1  0
  2  3  1  0
  3  4  1  0
  4  5  1  0
  5  6  1  0
  5  7  1  0
  7  8  1  0
  8  9  2  0
  9 10  1  0
 10 11  2  0
 11 12  1  0
 12 13  2  0
 13 14  1  0
 14 15  2  0
 15 16  1  0
  4 17  1  0
  3 18  1  0
  6  2  1  0
 11  7  1  0
 15 10  1  0
  1 19  1  0
  1 20  1  0
  2 21  1  0
  3 22  1  0
  4 23  1  0
  5 24  1  0
  8 25  1  0
 13 26  1  0
 16 27  1  0
 16 28  1  0
 17 29  1  0
 18 30  1  0
M  RAD  1   1   2
M  END
$$$$

     RDKit          3D

 30 32  0  0  0  0  0  0  0  0999 V2000
  -14.0811   14.5601  -22.6895 C   0  0  0  0  0  3  0  0  0  0  0  0
  -13.5325   14.3707  -24.0932 C   0  0  0  0  0  0  0  0  0  0  0  0
  -12.0889   14.8135  -24.1944 C   0  0  0  0  0  0  0  0  0  0  0  0
  -11.5286   13.6984  -25.0841 C   0  0  0  0  0  0  0  0  0  0  0  0
  -12.3382   12.5264  -24.5122 C   0  0  0  0  0  0  0  0  0  0  0  0
  -13.6001   13.0567  -24.4612 O   0  0  0  0  0  0  0  0  0  0  0  0
  -12.2371   11.3708  -25.3675 N   0  0  0  0  0  0  0  0  0  0  0  0
  -13.0502   10.9517  -26.3304 C   0  0  0  0  0  0  0  0  0  0  0  0
  -12.5470    9.8086  -26.8667 N   0  0  0  0  0  0  0  0  0  0  0  0
  -11.4015    9.5062  -26.2308 C   0  0  0  0  0  0  0  0  0  0  0  0
  -11.2034   10.4931  -25.2818 C   0  0  0  0  0  0  0  0  0  0  0  0
  -10.1173   10.4076  -24.5165 N   0  0  0  0  0  0  0  0  0  0  0  0
   -9.2025    9.4190  -24.6116 C   0  0  0  0  0  0  0  0  0  0  0  0
   -9.3913    8.4669  -25.5255 N   0  0  0  0  0  0  0  0  0  0  0  0
  -10.4714    8.4952  -26.3324 C   0  0  0  0  0  0  0  0  0  0  0  0
  -10.6350    7.4598  -27.2940 N   0  0  0  0  0  0  0  0  0  0  0  0
  -10.1786   13.5277  -24.9233 O   0  0  0  0  0  0  0  0  0  0  0  0
  -11.5224   14.6758  -22.9408 O   0  0  0  0  0  0  0  0  0  0  0  0
  -14.2552   15.6546  -22.5319 H   0  0  0  0  0  0  0  0  0  0  0  0
  -13.3406   14.1443  -21.9748 H   0  0  0  0  0  0  0  0  0  0  0  0
  -14.1169   15.0523  -24.7464 H   0  0  0  0  0  0  0  0  0  0  0  0
  -11.9576   15.7990  -24.6370 H   0  0  0  0  0  0  0  0  0  0  0  0
  -11.8600   13.8206  -26.1239 H   0  0  0  0  0  0  0  0  0  0  0  0
  -11.9438   12.3374  -23.4872 H   0  0  0  0  0  0  0  0  0  0  0  0
  -13.9520   11.4352  -26.6330 H   0  0  0  0  0  0  0  0  0  0  0  0
   -8.3282    9.3829  -23.9691 H   0  0  0  0  0  0  0  0  0  0  0  0
  -11.0394    6.5639  -26.9842 H   0  0  0  0  0  0  0  0  0  0  0  0
  -10.3471    7.6136  -28.2957 H   0  0  0  0  0  0  0  0  0  0  0  0
   -9.8399   13.0677  -25.7507 H   0  0  0  0  0  0  0  0  0  0  0  0
  -10.7448   14.0951  -22.8981 H   0  0  0  0  0  0  0  0  0  0  0  0
  1  2  1  0
  2  3  1  0
  3  4  1  0
  4  5  1  0
  5  6  1  0
  5  7  1  0
  7  8  1  0
  8  9  2  0
  9 10  1  0
 10 11  2  0
 11 12  1  0
 12 13  2  0
 13 14  1  0
 14 15  2  0
 15 16  1  0
  4 17  1  0
  3 18  1  0
  6  2  1  0
 11  7  1  0
 15 10  1  0
  1 19  1  0
  1 20  1  0
  2 21  1  0
  3 22  1  0
  4 23  1  0
  5 24  1  0
  8 25  1  0
 13 26  1  0
 16 27  1  0
 16 28  1  0
 17 29  1  0
 18 30  1  0
M  RAD  1   1   2
M  END
$$$$

     RDKit          3D

 30 32  0  0  0  0  0  0  0  0999 V2000
  -14.3340   14.9874  -23.1726 C   0  0  0  0  0  3  0  0  0  0  0  0
  -13.1119   14.1416  -23.3114 C   0  0  0  0  0  0  0  0  0  0  0  0
  -12.0921   14.7440  -24.2799 C   0  0  0  0  0  0  0  0  0  0  0  0
  -11.1699   13.5342  -24.4631 C   0  0  0  0  0  0  0  0  0  0  0  0
  -12.0906   12.4024  -24.0988 C   0  0  0  0  0  0  0  0  0  0  0  0
  -13.3556   12.9164  -23.9325 O   0  0  0  0  0  0  0  0  0  0  0  0
  -12.0668   11.3469  -25.1040 N   0  0  0  0  0  0  0  0  0  0  0  0
  -12.9528   11.1017  -26.0798 C   0  0  0  0  0  0  0  0  0  0  0  0
  -12.5481   10.0345  -26.7792 N   0  0  0  0  0  0  0  0  0  0  0  0
  -11.3894    9.5683  -26.2671 C   0  0  0  0  0  0  0  0  0  0  0  0
  -11.1055   10.4118  -25.2116 C   0  0  0  0  0  0  0  0  0  0  0  0
   -9.9685   10.1709  -24.4987 N   0  0  0  0  0  0  0  0  0  0  0  0
   -9.1631    9.1384  -24.8308 C   0  0  0  0  0  0  0  0  0  0  0  0
   -9.4684    8.3251  -25.8748 N   0  0  0  0  0  0  0  0  0  0  0  0
  -10.5767    8.5076  -26.6204 C   0  0  0  0  0  0  0  0  0  0  0  0
  -10.9153    7.6652  -27.7204 N   0  0  0  0  0  0  0  0  0  0  0  0
  -10.1611   13.5983  -23.4930 O   0  0  0  0  0  0  0  0  0  0  0  0
  -12.6571   15.0133  -25.5178 O   0  0  0  0  0  0  0  0  0  0  0  0
  -14.1695   15.6753  -22.2935 H   0  0  0  0  0  0  0  0  0  0  0  0
  -15.2615   14.3860  -23.0511 H   0  0  0  0  0  0  0  0  0  0  0  0
  -12.5634   13.9796  -22.3569 H   0  0  0  0  0  0  0  0  0  0  0  0
  -11.5863   15.5927  -23.8281 H   0  0  0  0  0  0  0  0  0  0  0  0
  -10.7906   13.5022  -25.4839 H   0  0  0  0  0  0  0  0  0  0  0  0
  -11.7935   11.9137  -23.1379 H   0  0  0  0  0  0  0  0  0  0  0  0
  -13.8359   11.7119  -26.2226 H   0  0  0  0  0  0  0  0  0  0  0  0
   -8.2600    8.9747  -24.2377 H   0  0  0  0  0  0  0  0  0  0  0  0
  -11.5225    6.8374  -27.6526 H   0  0  0  0  0  0  0  0  0  0  0  0
  -10.5289    7.8870  -28.6750 H   0  0  0  0  0  0  0  0  0  0  0  0
  -10.0624   12.7167  -23.0214 H   0  0  0  0  0  0  0  0  0  0  0  0
  -13.2949   14.2872  -25.7318 H   0  0  0  0  0  0  0  0  0  0  0  0
  1  2  1  0
  2  3  1  0
  3  4  1  0
  4  5  1  0
  5  6  1  0
  5  7  1  0
  7  8  1  0
  8  9  2  0
  9 10  1  0
 10 11  2  0
 11 12  1  0
 12 13  2  0
 13 14  1  0
 14 15  2  0
 15 16  1  0
  4 17  1  0
  3 18  1  0
  6  2  1  0
 11  7  1  0
 15 10  1  0
  1 19  1  0
  1 20  1  0
  2 21  1  0
  3 22  1  0
  4 23  1  0
  5 24  1  0
  8 25  1  0
 13 26  1  0
 16 27  1  0
 16 28  1  0
 17 29  1  0
 18 30  1  0
M  RAD  1   1   2
M  END
$$$$

     RDKit          3D

 30 32  0  0  0  0  0  0  0  0999 V2000
  -14.1680   14.9898  -23.2746 C   0  0  0  0  0  3  0  0  0  0  0  0
  -13.2658   14.4733  -24.3689 C   0  0  0  0  0  0  0  0  0  0  0  0
  -11.8017   14.6653  -24.0347 C   0  0  0  0  0  0  0  0  0  0  0  0
  -11.2058   13.3423  -24.5355 C   0  0  0  0  0  0  0  0  0  0  0  0
  -12.3301   12.8239  -25.3889 C   0  0  0  0  0  0  0  0  0  0  0  0
  -13.4455   13.1076  -24.5894 O   0  0  0  0  0  0  0  0  0  0  0  0
  -12.2204   11.4439  -25.7265 N   0  0  0  0  0  0  0  0  0  0  0  0
  -13.2454   10.6987  -26.1793 C   0  0  0  0  0  0  0  0  0  0  0  0
  -12.7956    9.4270  -26.4033 N   0  0  0  0  0  0  0  0  0  0  0  0
  -11.4940    9.3951  -26.0870 C   0  0  0  0  0  0  0  0  0  0  0  0
  -11.1526   10.6612  -25.6670 C   0  0  0  0  0  0  0  0  0  0  0  0
   -9.8943   10.9228  -25.2837 N   0  0  0  0  0  0  0  0  0  0  0  0
   -8.9339    9.9873  -25.2914 C   0  0  0  0  0  0  0  0  0  0  0  0
   -9.2675    8.7547  -25.7006 N   0  0  0  0  0  0  0  0  0  0  0  0
  -10.5158    8.4289  -26.0983 C   0  0  0  0  0  0  0  0  0  0  0  0
  -10.8599    7.1264  -26.5286 N   0  0  0  0  0  0  0  0  0  0  0  0
  -10.9426   12.5516  -23.4329 O   0  0  0  0  0  0  0  0  0  0  0  0
  -11.5881   14.8080  -22.6656 O   0  0  0  0  0  0  0  0  0  0  0  0
  -14.3626   14.2241  -22.5016 H   0  0  0  0  0  0  0  0  0  0  0  0
  -15.1014   15.3666  -23.7464 H   0  0  0  0  0  0  0  0  0  0  0  0
  -13.4614   14.9726  -25.3452 H   0  0  0  0  0  0  0  0  0  0  0  0
  -11.3893   15.5194  -24.6218 H   0  0  0  0  0  0  0  0  0  0  0  0
  -10.2928   13.5145  -25.1015 H   0  0  0  0  0  0  0  0  0  0  0  0
  -12.4008   13.4937  -26.2740 H   0  0  0  0  0  0  0  0  0  0  0  0
  -14.2777   10.9562  -26.3689 H   0  0  0  0  0  0  0  0  0  0  0  0
   -7.9178   10.2394  -24.9711 H   0  0  0  0  0  0  0  0  0  0  0  0
  -11.4144    6.4580  -25.9536 H   0  0  0  0  0  0  0  0  0  0  0  0
  -10.5441    6.8056  -27.4785 H   0  0  0  0  0  0  0  0  0  0  0  0
  -11.3337   12.8721  -22.6012 H   0  0  0  0  0  0  0  0  0  0  0  0
  -11.8913   15.7196  -22.4318 H   0  0  0  0  0  0  0  0  0  0  0  0
  1  2  1  0
  2  3  1  0
  3  4  1  0
  4  5  1  0
  5  6  1  0
  5  7  1  0
  7  8  1  0
  8  9  2  0
  9 10  1  0
 10 11  2  0
 11 12  1  0
 12 13  2  0
 13 14  1  0
 14 15  2  0
 15 16  1  0
  4 17  1  0
  3 18  1  0
  6  2  1  0
 11  7  1  0
 15 10  1  0
  1 19  1  0
  1 20  1  0
  2 21  1  0
  3 22  1  0
  4 23  1  0
  5 24  1  0
  8 25  1  0
 13 26  1  0
 16 27  1  0
 16 28  1  0
 17 29  1  0
 18 30  1  0
M  RAD  1   1   2
M  END
$$$$

     RDKit          3D

 30 32  0  0  0  0  0  0  0  0999 V2000
  -14.0647   14.6068  -23.1061 C   0  0  0  0  0  3  0  0  0  0  0  0
  -13.2984   14.4772  -24.3917 C   0  0  0  0  0  0  0  0  0  0  0  0
  -11.8437   14.6415  -24.1086 C   0  0  0  0  0  0  0  0  0  0  0  0
  -11.3293   13.2133  -24.1324 C   0  0  0  0  0  0  0  0  0  0  0  0
  -12.5509   12.3827  -24.3531 C   0  0  0  0  0  0  0  0  0  0  0  0
  -13.4557   13.2509  -24.9998 O   0  0  0  0  0  0  0  0  0  0  0  0
  -12.3699   11.2518  -25.1938 N   0  0  0  0  0  0  0  0  0  0  0  0
  -13.2440   10.7435  -26.0741 C   0  0  0  0  0  0  0  0  0  0  0  0
  -12.6649    9.6773  -26.6519 N   0  0  0  0  0  0  0  0  0  0  0  0
  -11.4310    9.4948  -26.1540 C   0  0  0  0  0  0  0  0  0  0  0  0
  -11.2397   10.4974  -25.2236 C   0  0  0  0  0  0  0  0  0  0  0  0
  -10.0675   10.5339  -24.5768 N   0  0  0  0  0  0  0  0  0  0  0  0
   -9.0846    9.6473  -24.7935 C   0  0  0  0  0  0  0  0  0  0  0  0
   -9.2946    8.6842  -25.7010 N   0  0  0  0  0  0  0  0  0  0  0  0
  -10.4392    8.5686  -26.3988 C   0  0  0  0  0  0  0  0  0  0  0  0
  -10.6786    7.5607  -27.3587 N   0  0  0  0  0  0  0  0  0  0  0  0
  -10.3992   13.1281  -25.1518 O   0  0  0  0  0  0  0  0  0  0  0  0
  -11.6709   15.2479  -22.8862 O   0  0  0  0  0  0  0  0  0  0  0  0
  -15.0838   14.1831  -23.1598 H   0  0  0  0  0  0  0  0  0  0  0  0
  -13.4995   14.3342  -22.2125 H   0  0  0  0  0  0  0  0  0  0  0  0
  -13.6439   15.2499  -25.1198 H   0  0  0  0  0  0  0  0  0  0  0  0
  -11.3790   15.2660  -24.8966 H   0  0  0  0  0  0  0  0  0  0  0  0
  -10.9091   13.0141  -23.1283 H   0  0  0  0  0  0  0  0  0  0  0  0
  -13.0306   12.1185  -23.3920 H   0  0  0  0  0  0  0  0  0  0  0  0
  -14.2336   11.0804  -26.3159 H   0  0  0  0  0  0  0  0  0  0  0  0
   -8.1321    9.6900  -24.2573 H   0  0  0  0  0  0  0  0  0  0  0  0
  -11.0502    6.6070  -27.0850 H   0  0  0  0  0  0  0  0  0  0  0  0
  -10.4865    7.7544  -28.3649 H   0  0  0  0  0  0  0  0  0  0  0  0
   -9.4998   13.3296  -24.7556 H   0  0  0  0  0  0  0  0  0  0  0  0
  -11.2025   16.1076  -22.9832 H   0  0  0  0  0  0  0  0  0  0  0  0
  1  2  1  0
  2  3  1  0
  3  4  1  0
  4  5  1  0
  5  6  1  0
  5  7  1  0
  7  8  1  0
  8  9  2  0
  9 10  1  0
 10 11  2  0
 11 12  1  0
 12 13  2  0
 13 14  1  0
 14 15  2  0
 15 16  1  0
  4 17  1  0
  3 18  1  0
  6  2  1  0
 11  7  1  0
 15 10  1  0
  1 19  1  0
  1 20  1  0
  2 21  1  0
  3 22  1  0
  4 23  1  0
  5 24  1  0
  8 25  1  0
 13 26  1  0
 16 27  1  0
 16 28  1  0
 17 29  1  0
 18 30  1  0
M  RAD  1   1   2
M  END
$$$$

     RDKit          3D

 30 32  0  0  0  0  0  0  0  0999 V2000
  -12.6899   13.7396  -21.6961 C   0  0  0  0  0  3  0  0  0  0  0  0
  -12.1520   13.8207  -23.0864 C   0  0  0  0  0  0  0  0  0  0  0  0
  -13.2553   14.0740  -24.1184 C   0  0  0  0  0  0  0  0  0  0  0  0
  -12.4755   13.7581  -25.4026 C   0  0  0  0  0  0  0  0  0  0  0  0
  -11.3203   12.9328  -24.8638 C   0  0  0  0  0  0  0  0  0  0  0  0
  -11.6507   12.6048  -23.5500 O   0  0  0  0  0  0  0  0  0  0  0  0
  -11.0809   11.7605  -25.6651 N   0  0  0  0  0  0  0  0  0  0  0  0
  -10.7323   11.8047  -26.9583 C   0  0  0  0  0  0  0  0  0  0  0  0
  -10.5898   10.5259  -27.3928 N   0  0  0  0  0  0  0  0  0  0  0  0
  -10.8539    9.7116  -26.3567 C   0  0  0  0  0  0  0  0  0  0  0  0
  -11.1650   10.4903  -25.2616 C   0  0  0  0  0  0  0  0  0  0  0  0
  -11.4667    9.8674  -24.0999 N   0  0  0  0  0  0  0  0  0  0  0  0
  -11.4631    8.5226  -24.0158 C   0  0  0  0  0  0  0  0  0  0  0  0
  -11.1578    7.7620  -25.0909 N   0  0  0  0  0  0  0  0  0  0  0  0
  -10.8501    8.3394  -26.2711 C   0  0  0  0  0  0  0  0  0  0  0  0
  -10.5228    7.5399  -27.4245 N   0  0  0  0  0  0  0  0  0  0  0  0
  -12.0274   14.9701  -25.9255 O   0  0  0  0  0  0  0  0  0  0  0  0
  -13.6735   15.3835  -24.0766 O   0  0  0  0  0  0  0  0  0  0  0  0
  -11.9942   14.2448  -21.0109 H   0  0  0  0  0  0  0  0  0  0  0  0
  -13.6929   14.2022  -21.6431 H   0  0  0  0  0  0  0  0  0  0  0  0
  -11.3661   14.5894  -23.2198 H   0  0  0  0  0  0  0  0  0  0  0  0
  -14.0504   13.3319  -23.9352 H   0  0  0  0  0  0  0  0  0  0  0  0
  -13.1322   13.2051  -26.0715 H   0  0  0  0  0  0  0  0  0  0  0  0
  -10.4043   13.5857  -24.7937 H   0  0  0  0  0  0  0  0  0  0  0  0
  -10.5702   12.6461  -27.6191 H   0  0  0  0  0  0  0  0  0  0  0  0
  -11.7084    8.0447  -23.0734 H   0  0  0  0  0  0  0  0  0  0  0  0
  -10.9433    7.7400  -28.3539 H   0  0  0  0  0  0  0  0  0  0  0  0
   -9.8440    6.7532  -27.2756 H   0  0  0  0  0  0  0  0  0  0  0  0
  -11.0212   14.9673  -25.9229 H   0  0  0  0  0  0  0  0  0  0  0  0
  -14.2571   15.5774  -24.8268 H   0  0  0  0  0  0  0  0  0  0  0  0
  1  2  1  0
  2  3  1  0
  3  4  1  0
  4  5  1  0
  5  6  1  0
  5  7  1  0
  7  8  1  0
  8  9  2  0
  9 10  1  0
 10 11  2  0
 11 12  1  0
 12 13  2  0
 13 14  1  0
 14 15  2  0
 15 16  1  0
  4 17  1  0
  3 18  1  0
  6  2  1  0
 11  7  1  0
 15 10  1  0
  1 19  1  0
  1 20  1  0
  2 21  1  0
  3 22  1  0
  4 23  1  0
  5 24  1  0
  8 25  1  0
 13 26  1  0
 16 27  1  0
 16 28  1  0
 17 29  1  0
 18 30  1  0
M  RAD  1   1   2
M  END
$$$$

     RDKit          3D

 30 32  0  0  0  0  0  0  0  0999 V2000
  -14.4002   15.0120  -24.1536 C   0  0  0  0  0  3  0  0  0  0  0  0
  -13.3277   14.1953  -23.4685 C   0  0  0  0  0  0  0  0  0  0  0  0
  -11.9461   14.5468  -23.9733 C   0  0  0  0  0  0  0  0  0  0  0  0
  -11.1991   13.2407  -23.7455 C   0  0  0  0  0  0  0  0  0  0  0  0
  -12.2984   12.2243  -23.7119 C   0  0  0  0  0  0  0  0  0  0  0  0
  -13.5025   12.8803  -23.8289 O   0  0  0  0  0  0  0  0  0  0  0  0
  -12.1836   11.2700  -24.8003 N   0  0  0  0  0  0  0  0  0  0  0  0
  -13.1002   11.0122  -25.7575 C   0  0  0  0  0  0  0  0  0  0  0  0
  -12.6496   10.0657  -26.6014 N   0  0  0  0  0  0  0  0  0  0  0  0
  -11.4322    9.7194  -26.1737 C   0  0  0  0  0  0  0  0  0  0  0  0
  -11.1310   10.4670  -25.0472 C   0  0  0  0  0  0  0  0  0  0  0  0
   -9.9297   10.2718  -24.4457 N   0  0  0  0  0  0  0  0  0  0  0  0
   -9.0491    9.3752  -24.9276 C   0  0  0  0  0  0  0  0  0  0  0  0
   -9.3619    8.6721  -26.0078 N   0  0  0  0  0  0  0  0  0  0  0  0
  -10.5267    8.7968  -26.6700 C   0  0  0  0  0  0  0  0  0  0  0  0
  -10.8582    8.0467  -27.8208 N   0  0  0  0  0  0  0  0  0  0  0  0
  -10.2975   13.0045  -24.7961 O   0  0  0  0  0  0  0  0  0  0  0  0
  -11.9332   14.8071  -25.3261 O   0  0  0  0  0  0  0  0  0  0  0  0
  -15.2225   14.3508  -24.5383 H   0  0  0  0  0  0  0  0  0  0  0  0
  -14.8862   15.7032  -23.4334 H   0  0  0  0  0  0  0  0  0  0  0  0
  -13.3827   14.2911  -22.3836 H   0  0  0  0  0  0  0  0  0  0  0  0
  -11.4442   15.3190  -23.3935 H   0  0  0  0  0  0  0  0  0  0  0  0
  -10.6592   13.2556  -22.7815 H   0  0  0  0  0  0  0  0  0  0  0  0
  -12.3176   11.6870  -22.7241 H   0  0  0  0  0  0  0  0  0  0  0  0
  -14.0801   11.4690  -25.8837 H   0  0  0  0  0  0  0  0  0  0  0  0
   -8.0783    9.1916  -24.4732 H   0  0  0  0  0  0  0  0  0  0  0  0
  -10.2356    8.0849  -28.6424 H   0  0  0  0  0  0  0  0  0  0  0  0
  -11.7118    7.4741  -27.8265 H   0  0  0  0  0  0  0  0  0  0  0  0
   -9.5196   13.5892  -24.6401 H   0  0  0  0  0  0  0  0  0  0  0  0
  -12.6716   14.3764  -25.8239 H   0  0  0  0  0  0  0  0  0  0  0  0
  1  2  1  0
  2  3  1  0
  3  4  1  0
  4  5  1  0
  5  6  1  0
  5  7  1  0
  7  8  1  0
  8  9  2  0
  9 10  1  0
 10 11  2  0
 11 12  1  0
 12 13  2  0
 13 14  1  0
 14 15  2  0
 15 16  1  0
  4 17  1  0
  3 18  1  0
  6  2  1  0
 11  7  1  0
 15 10  1  0
  1 19  1  0
  1 20  1  0
  2 21  1  0
  3 22  1  0
  4 23  1  0
  5 24  1  0
  8 25  1  0
 13 26  1  0
 16 27  1  0
 16 28  1  0
 17 29  1  0
 18 30  1  0
M  RAD  1   1   2
M  END
$$$$

     RDKit          3D

 30 32  0  0  0  0  0  0  0  0999 V2000
  -10.4592   14.7300  -24.5597 C   0  0  0  0  0  3  0  0  0  0  0  0
  -11.3497   14.1403  -23.4669 C   0  0  0  0  0  0  0  0  0  0  0  0
  -12.7747   14.5633  -23.6856 C   0  0  0  0  0  0  0  0  0  0  0  0
  -13.2532   13.4486  -24.6222 C   0  0  0  0  0  0  0  0  0  0  0  0
  -12.4146   12.2997  -24.1629 C   0  0  0  0  0  0  0  0  0  0  0  0
  -11.2779   12.7767  -23.5790 O   0  0  0  0  0  0  0  0  0  0  0  0
  -12.1245   11.3896  -25.2568 N   0  0  0  0  0  0  0  0  0  0  0  0
  -12.6010   11.3995  -26.5155 C   0  0  0  0  0  0  0  0  0  0  0  0
  -12.0618   10.3618  -27.2033 N   0  0  0  0  0  0  0  0  0  0  0  0
  -11.2461    9.7116  -26.3518 C   0  0  0  0  0  0  0  0  0  0  0  0
  -11.2717   10.3432  -25.1210 C   0  0  0  0  0  0  0  0  0  0  0  0
  -10.5295    9.8746  -24.0931 N   0  0  0  0  0  0  0  0  0  0  0  0
   -9.7499    8.7871  -24.2383 C   0  0  0  0  0  0  0  0  0  0  0  0
   -9.7412    8.1901  -25.4433 N   0  0  0  0  0  0  0  0  0  0  0  0
  -10.4456    8.5974  -26.4958 C   0  0  0  0  0  0  0  0  0  0  0  0
  -10.4058    7.9282  -27.7659 N   0  0  0  0  0  0  0  0  0  0  0  0
  -14.6058   13.2654  -24.3310 O   0  0  0  0  0  0  0  0  0  0  0  0
  -12.8148   15.8010  -24.3637 O   0  0  0  0  0  0  0  0  0  0  0  0
   -9.4078   14.5023  -24.2253 H   0  0  0  0  0  0  0  0  0  0  0  0
  -10.6205   14.1144  -25.4723 H   0  0  0  0  0  0  0  0  0  0  0  0
  -10.9658   14.4665  -22.4613 H   0  0  0  0  0  0  0  0  0  0  0  0
  -13.3679   14.5866  -22.7607 H   0  0  0  0  0  0  0  0  0  0  0  0
  -13.0719   13.7679  -25.6547 H   0  0  0  0  0  0  0  0  0  0  0  0
  -13.0054   11.7710  -23.3581 H   0  0  0  0  0  0  0  0  0  0  0  0
  -13.3029   12.1439  -26.8675 H   0  0  0  0  0  0  0  0  0  0  0  0
   -9.1439    8.4022  -23.4036 H   0  0  0  0  0  0  0  0  0  0  0  0
  -11.2471    7.5776  -28.2515 H   0  0  0  0  0  0  0  0  0  0  0  0
   -9.4689    7.8073  -28.1892 H   0  0  0  0  0  0  0  0  0  0  0  0
  -15.1359   13.3001  -25.1510 H   0  0  0  0  0  0  0  0  0  0  0  0
  -12.1730   15.6856  -25.1298 H   0  0  0  0  0  0  0  0  0  0  0  0
  1  2  1  0
  2  3  1  0
  3  4  1  0
  4  5  1  0
  5  6  1  0
  5  7  1  0
  7  8  1  0
  8  9  2  0
  9 10  1  0
 10 11  2  0
 11 12  1  0
 12 13  2  0
 13 14  1  0
 14 15  2  0
 15 16  1  0
  4 17  1  0
  3 18  1  0
  6  2  1  0
 11  7  1  0
 15 10  1  0
  1 19  1  0
  1 20  1  0
  2 21  1  0
  3 22  1  0
  4 23  1  0
  5 24  1  0
  8 25  1  0
 13 26  1  0
 16 27  1  0
 16 28  1  0
 17 29  1  0
 18 30  1  0
M  RAD  1   1   2
M  END
$$$$

     RDKit          3D

 30 32  0  0  0  0  0  0  0  0999 V2000
  -14.6586   14.2329  -23.8058 C   0  0  0  0  0  3  0  0  0  0  0  0
  -13.3697   13.5167  -24.1364 C   0  0  0  0  0  0  0  0  0  0  0  0
  -12.2013   14.0523  -23.3109 C   0  0  0  0  0  0  0  0  0  0  0  0
  -11.0363   13.4328  -24.0916 C   0  0  0  0  0  0  0  0  0  0  0  0
  -11.6743   13.1853  -25.4435 C   0  0  0  0  0  0  0  0  0  0  0  0
  -12.9229   13.8031  -25.4250 O   0  0  0  0  0  0  0  0  0  0  0  0
  -11.8939   11.7741  -25.6964 N   0  0  0  0  0  0  0  0  0  0  0  0
  -13.0417   11.1623  -26.0189 C   0  0  0  0  0  0  0  0  0  0  0  0
  -12.8079    9.8571  -26.1648 N   0  0  0  0  0  0  0  0  0  0  0  0
  -11.5245    9.6008  -25.9433 C   0  0  0  0  0  0  0  0  0  0  0  0
  -10.9350   10.8090  -25.6454 C   0  0  0  0  0  0  0  0  0  0  0  0
   -9.6172   10.7926  -25.3816 N   0  0  0  0  0  0  0  0  0  0  0  0
   -8.8963    9.6433  -25.4061 C   0  0  0  0  0  0  0  0  0  0  0  0
   -9.4999    8.4738  -25.7011 N   0  0  0  0  0  0  0  0  0  0  0  0
  -10.8257    8.4121  -25.9780 C   0  0  0  0  0  0  0  0  0  0  0  0
  -11.4360    7.1696  -26.2852 N   0  0  0  0  0  0  0  0  0  0  0  0
  -10.6983   12.2701  -23.4306 O   0  0  0  0  0  0  0  0  0  0  0  0
  -12.0874   15.4202  -23.3912 O   0  0  0  0  0  0  0  0  0  0  0  0
  -15.2562   14.2420  -24.7596 H   0  0  0  0  0  0  0  0  0  0  0  0
  -15.2919   13.6219  -23.0995 H   0  0  0  0  0  0  0  0  0  0  0  0
  -13.4223   12.4420  -23.9377 H   0  0  0  0  0  0  0  0  0  0  0  0
  -12.2257   13.7183  -22.2758 H   0  0  0  0  0  0  0  0  0  0  0  0
  -10.2125   14.1341  -24.2153 H   0  0  0  0  0  0  0  0  0  0  0  0
  -11.0333   13.6101  -26.2451 H   0  0  0  0  0  0  0  0  0  0  0  0
  -13.9850   11.6648  -26.1355 H   0  0  0  0  0  0  0  0  0  0  0  0
   -7.8376    9.7020  -25.1835 H   0  0  0  0  0  0  0  0  0  0  0  0
  -10.9341    6.3885  -26.7512 H   0  0  0  0  0  0  0  0  0  0  0  0
  -12.4336    7.0211  -26.0371 H   0  0  0  0  0  0  0  0  0  0  0  0
   -9.8136   12.4229  -22.9942 H   0  0  0  0  0  0  0  0  0  0  0  0
  -12.5594   15.8028  -24.1955 H   0  0  0  0  0  0  0  0  0  0  0  0
  1  2  1  0
  2  3  1  0
  3  4  1  0
  4  5  1  0
  5  6  1  0
  5  7  1  0
  7  8  1  0
  8  9  2  0
  9 10  1  0
 10 11  2  0
 11 12  1  0
 12 13  2  0
 13 14  1  0
 14 15  2  0
 15 16  1  0
  4 17  1  0
  3 18  1  0
  6  2  1  0
 11  7  1  0
 15 10  1  0
  1 19  1  0
  1 20  1  0
  2 21  1  0
  3 22  1  0
  4 23  1  0
  5 24  1  0
  8 25  1  0
 13 26  1  0
 16 27  1  0
 16 28  1  0
 17 29  1  0
 18 30  1  0
M  RAD  1   1   2
M  END
$$$$

     RDKit          3D

 30 32  0  0  0  0  0  0  0  0999 V2000
  -14.5543   13.9957  -22.9015 C   0  0  0  0  0  3  0  0  0  0  0  0
  -13.0844   13.8667  -23.1506 C   0  0  0  0  0  0  0  0  0  0  0  0
  -12.6544   14.6451  -24.4000 C   0  0  0  0  0  0  0  0  0  0  0  0
  -11.3549   13.9640  -24.7313 C   0  0  0  0  0  0  0  0  0  0  0  0
  -11.5860   12.5691  -24.2044 C   0  0  0  0  0  0  0  0  0  0  0  0
  -12.7717   12.5720  -23.5019 O   0  0  0  0  0  0  0  0  0  0  0  0
  -11.5838   11.5698  -25.2548 N   0  0  0  0  0  0  0  0  0  0  0  0
  -12.1231   11.6568  -26.4812 C   0  0  0  0  0  0  0  0  0  0  0  0
  -11.8808   10.5057  -27.1040 N   0  0  0  0  0  0  0  0  0  0  0  0
  -11.1946    9.6872  -26.2902 C   0  0  0  0  0  0  0  0  0  0  0  0
  -10.9977   10.3517  -25.1075 C   0  0  0  0  0  0  0  0  0  0  0  0
  -10.3318    9.7456  -24.1196 N   0  0  0  0  0  0  0  0  0  0  0  0
   -9.8575    8.4975  -24.2771 C   0  0  0  0  0  0  0  0  0  0  0  0
  -10.0504    7.8465  -25.4358 N   0  0  0  0  0  0  0  0  0  0  0  0
  -10.7107    8.4054  -26.4601 C   0  0  0  0  0  0  0  0  0  0  0  0
  -10.9207    7.7202  -27.6965 N   0  0  0  0  0  0  0  0  0  0  0  0
  -11.0090   14.0147  -26.0566 O   0  0  0  0  0  0  0  0  0  0  0  0
  -12.4613   15.9942  -24.0829 O   0  0  0  0  0  0  0  0  0  0  0  0
  -15.0758   14.5584  -23.7213 H   0  0  0  0  0  0  0  0  0  0  0  0
  -14.7704   14.4664  -21.8991 H   0  0  0  0  0  0  0  0  0  0  0  0
  -12.5048   14.2264  -22.2747 H   0  0  0  0  0  0  0  0  0  0  0  0
  -13.3753   14.4896  -25.2105 H   0  0  0  0  0  0  0  0  0  0  0  0
  -10.5499   14.5043  -24.1601 H   0  0  0  0  0  0  0  0  0  0  0  0
  -10.7658   12.3636  -23.4869 H   0  0  0  0  0  0  0  0  0  0  0  0
  -12.6484   12.5422  -26.8305 H   0  0  0  0  0  0  0  0  0  0  0  0
   -9.3124    8.0199  -23.4487 H   0  0  0  0  0  0  0  0  0  0  0  0
  -10.7202    8.1238  -28.6257 H   0  0  0  0  0  0  0  0  0  0  0  0
  -11.3007    6.7503  -27.6576 H   0  0  0  0  0  0  0  0  0  0  0  0
  -10.1180   14.3777  -26.2456 H   0  0  0  0  0  0  0  0  0  0  0  0
  -12.9096   16.5411  -24.7825 H   0  0  0  0  0  0  0  0  0  0  0  0
  1  2  1  0
  2  3  1  0
  3  4  1  0
  4  5  1  0
  5  6  1  0
  5  7  1  0
  7  8  1  0
  8  9  2  0
  9 10  1  0
 10 11  2  0
 11 12  1  0
 12 13  2  0
 13 14  1  0
 14 15  2  0
 15 16  1  0
  4 17  1  0
  3 18  1  0
  6  2  1  0
 11  7  1  0
 15 10  1  0
  1 19  1  0
  1 20  1  0
  2 21  1  0
  3 22  1  0
  4 23  1  0
  5 24  1  0
  8 25  1  0
 13 26  1  0
 16 27  1  0
 16 28  1  0
 17 29  1  0
 18 30  1  0
M  RAD  1   1   2
M  END
$$$$

     RDKit          3D

 30 32  0  0  0  0  0  0  0  0999 V2000
  -12.2650   14.2984  -21.9227 C   0  0  0  0  0  3  0  0  0  0  0  0
  -11.8519   14.5512  -23.3521 C   0  0  0  0  0  0  0  0  0  0  0  0
  -13.1067   14.6067  -24.1749 C   0  0  0  0  0  0  0  0  0  0  0  0
  -13.3630   13.1390  -24.4372 C   0  0  0  0  0  0  0  0  0  0  0  0
  -12.0283   12.4681  -24.1384 C   0  0  0  0  0  0  0  0  0  0  0  0
  -11.1262   13.4974  -23.8951 O   0  0  0  0  0  0  0  0  0  0  0  0
  -11.5886   11.6136  -25.1997 N   0  0  0  0  0  0  0  0  0  0  0  0
  -11.4789   11.9118  -26.5032 C   0  0  0  0  0  0  0  0  0  0  0  0
  -11.0315   10.8599  -27.2131 N   0  0  0  0  0  0  0  0  0  0  0  0
  -10.8493    9.8647  -26.3510 C   0  0  0  0  0  0  0  0  0  0  0  0
  -11.1918   10.3104  -25.0771 C   0  0  0  0  0  0  0  0  0  0  0  0
  -11.0979    9.4946  -24.0177 N   0  0  0  0  0  0  0  0  0  0  0  0
  -10.6710    8.2336  -24.1724 C   0  0  0  0  0  0  0  0  0  0  0  0
  -10.3435    7.8148  -25.4057 N   0  0  0  0  0  0  0  0  0  0  0  0
  -10.4079    8.5632  -26.5160 C   0  0  0  0  0  0  0  0  0  0  0  0
  -10.0509    8.0797  -27.8054 N   0  0  0  0  0  0  0  0  0  0  0  0
  -13.7725   12.9705  -25.7339 O   0  0  0  0  0  0  0  0  0  0  0  0
  -12.9022   15.3304  -25.3405 O   0  0  0  0  0  0  0  0  0  0  0  0
  -12.4253   15.2730  -21.4022 H   0  0  0  0  0  0  0  0  0  0  0  0
  -13.1851   13.6833  -21.8608 H   0  0  0  0  0  0  0  0  0  0  0  0
  -11.2315   15.4625  -23.4240 H   0  0  0  0  0  0  0  0  0  0  0  0
  -13.9352   15.0467  -23.5577 H   0  0  0  0  0  0  0  0  0  0  0  0
  -14.1689   12.7866  -23.7625 H   0  0  0  0  0  0  0  0  0  0  0  0
  -12.1680   11.9317  -23.1770 H   0  0  0  0  0  0  0  0  0  0  0  0
  -11.7387   12.9131  -26.8833 H   0  0  0  0  0  0  0  0  0  0  0  0
  -10.5890    7.5495  -23.3047 H   0  0  0  0  0  0  0  0  0  0  0  0
   -9.3541    8.5169  -28.4110 H   0  0  0  0  0  0  0  0  0  0  0  0
  -10.5413    7.2204  -28.1421 H   0  0  0  0  0  0  0  0  0  0  0  0
  -13.9661   13.8473  -26.1899 H   0  0  0  0  0  0  0  0  0  0  0  0
  -11.9211   15.4952  -25.4334 H   0  0  0  0  0  0  0  0  0  0  0  0
  1  2  1  0
  2  3  1  0
  3  4  1  0
  4  5  1  0
  5  6  1  0
  5  7  1  0
  7  8  1  0
  8  9  2  0
  9 10  1  0
 10 11  2  0
 11 12  1  0
 12 13  2  0
 13 14  1  0
 14 15  2  0
 15 16  1  0
  4 17  1  0
  3 18  1  0
  6  2  1  0
 11  7  1  0
 15 10  1  0
  1 19  1  0
  1 20  1  0
  2 21  1  0
  3 22  1  0
  4 23  1  0
  5 24  1  0
  8 25  1  0
 13 26  1  0
 16 27  1  0
 16 28  1  0
 17 29  1  0
 18 30  1  0
M  RAD  1   1   2
M  END
$$$$

     RDKit          3D

 30 32  0  0  0  0  0  0  0  0999 V2000
  -12.5438   13.6940  -21.7580 C   0  0  0  0  0  3  0  0  0  0  0  0
  -11.9616   14.0015  -23.1166 C   0  0  0  0  0  0  0  0  0  0  0  0
  -13.0252   14.6205  -23.9859 C   0  0  0  0  0  0  0  0  0  0  0  0
  -12.9043   13.7556  -25.2506 C   0  0  0  0  0  0  0  0  0  0  0  0
  -12.4611   12.4629  -24.6615 C   0  0  0  0  0  0  0  0  0  0  0  0
  -11.5572   12.8301  -23.7006 O   0  0  0  0  0  0  0  0  0  0  0  0
  -11.8657   11.5562  -25.6115 N   0  0  0  0  0  0  0  0  0  0  0  0
  -11.6254   11.7023  -26.9118 C   0  0  0  0  0  0  0  0  0  0  0  0
  -11.0527   10.5876  -27.3915 N   0  0  0  0  0  0  0  0  0  0  0  0
  -10.9230    9.7038  -26.3699 C   0  0  0  0  0  0  0  0  0  0  0  0
  -11.4391   10.3289  -25.2581 C   0  0  0  0  0  0  0  0  0  0  0  0
  -11.4213    9.6359  -24.0945 N   0  0  0  0  0  0  0  0  0  0  0  0
  -10.9232    8.3892  -24.0154 C   0  0  0  0  0  0  0  0  0  0  0  0
  -10.4240    7.7962  -25.1116 N   0  0  0  0  0  0  0  0  0  0  0  0
  -10.4149    8.4312  -26.2876 C   0  0  0  0  0  0  0  0  0  0  0  0
   -9.8821    7.7807  -27.4261 N   0  0  0  0  0  0  0  0  0  0  0  0
  -11.9273   14.3763  -26.0232 O   0  0  0  0  0  0  0  0  0  0  0  0
  -12.7752   15.9550  -24.2818 O   0  0  0  0  0  0  0  0  0  0  0  0
  -13.4264   13.0427  -21.9080 H   0  0  0  0  0  0  0  0  0  0  0  0
  -11.8093   13.0807  -21.1615 H   0  0  0  0  0  0  0  0  0  0  0  0
  -11.1005   14.6932  -23.0589 H   0  0  0  0  0  0  0  0  0  0  0  0
  -14.0472   14.4404  -23.6042 H   0  0  0  0  0  0  0  0  0  0  0  0
  -13.8690   13.6883  -25.7657 H   0  0  0  0  0  0  0  0  0  0  0  0
  -13.3660   11.9497  -24.2525 H   0  0  0  0  0  0  0  0  0  0  0  0
  -11.8463   12.5599  -27.4920 H   0  0  0  0  0  0  0  0  0  0  0  0
  -10.9250    7.8648  -23.0693 H   0  0  0  0  0  0  0  0  0  0  0  0
  -10.5505    7.4306  -28.1378 H   0  0  0  0  0  0  0  0  0  0  0  0
   -8.8652    7.6419  -27.5752 H   0  0  0  0  0  0  0  0  0  0  0  0
  -12.3992   14.8112  -26.7999 H   0  0  0  0  0  0  0  0  0  0  0  0
  -12.7098   16.4273  -23.4153 H   0  0  0  0  0  0  0  0  0  0  0  0
  1  2  1  0
  2  3  1  0
  3  4  1  0
  4  5  1  0
  5  6  1  0
  5  7  1  0
  7  8  1  0
  8  9  2  0
  9 10  1  0
 10 11  2  0
 11 12  1  0
 12 13  2  0
 13 14  1  0
 14 15  2  0
 15 16  1  0
  4 17  1  0
  3 18  1  0
  6  2  1  0
 11  7  1  0
 15 10  1  0
  1 19  1  0
  1 20  1  0
  2 21  1  0
  3 22  1  0
  4 23  1  0
  5 24  1  0
  8 25  1  0
 13 26  1  0
 16 27  1  0
 16 28  1  0
 17 29  1  0
 18 30  1  0
M  RAD  1   1   2
M  END
$$$$

     RDKit          3D

 30 32  0  0  0  0  0  0  0  0999 V2000
  -13.0094   13.7202  -21.8850 C   0  0  0  0  0  3  0  0  0  0  0  0
  -12.1161   14.0123  -23.0666 C   0  0  0  0  0  0  0  0  0  0  0  0
  -12.9335   14.7147  -24.1223 C   0  0  0  0  0  0  0  0  0  0  0  0
  -12.7775   13.7849  -25.3056 C   0  0  0  0  0  0  0  0  0  0  0  0
  -12.5726   12.4460  -24.5977 C   0  0  0  0  0  0  0  0  0  0  0  0
  -11.6811   12.8204  -23.5908 O   0  0  0  0  0  0  0  0  0  0  0  0
  -11.9904   11.5028  -25.5049 N   0  0  0  0  0  0  0  0  0  0  0  0
  -11.9020   11.6545  -26.8392 C   0  0  0  0  0  0  0  0  0  0  0  0
  -11.2985   10.5735  -27.3600 N   0  0  0  0  0  0  0  0  0  0  0  0
  -10.9935    9.7169  -26.3646 C   0  0  0  0  0  0  0  0  0  0  0  0
  -11.4344   10.3139  -25.2026 C   0  0  0  0  0  0  0  0  0  0  0  0
  -11.2388    9.6358  -24.0410 N   0  0  0  0  0  0  0  0  0  0  0  0
  -10.6387    8.4285  -24.0218 C   0  0  0  0  0  0  0  0  0  0  0  0
  -10.2090    7.8469  -25.1565 N   0  0  0  0  0  0  0  0  0  0  0  0
  -10.3751    8.4714  -26.3393 C   0  0  0  0  0  0  0  0  0  0  0  0
   -9.9230    7.8626  -27.5447 N   0  0  0  0  0  0  0  0  0  0  0  0
  -11.5691   14.1041  -25.9168 O   0  0  0  0  0  0  0  0  0  0  0  0
  -12.4642   15.9987  -24.3965 O   0  0  0  0  0  0  0  0  0  0  0  0
  -12.4957   12.9286  -21.2808 H   0  0  0  0  0  0  0  0  0  0  0  0
  -13.9599   13.2786  -22.2463 H   0  0  0  0  0  0  0  0  0  0  0  0
  -11.2895   14.7018  -22.7905 H   0  0  0  0  0  0  0  0  0  0  0  0
  -14.0309   14.7154  -23.8773 H   0  0  0  0  0  0  0  0  0  0  0  0
  -13.6317   13.7770  -25.9800 H   0  0  0  0  0  0  0  0  0  0  0  0
  -13.5371   12.1020  -24.1747 H   0  0  0  0  0  0  0  0  0  0  0  0
  -12.2368   12.4778  -27.4572 H   0  0  0  0  0  0  0  0  0  0  0  0
  -10.4740    7.8732  -23.1083 H   0  0  0  0  0  0  0  0  0  0  0  0
   -9.7418    6.8319  -27.5504 H   0  0  0  0  0  0  0  0  0  0  0  0
   -9.7807    8.4490  -28.3962 H   0  0  0  0  0  0  0  0  0  0  0  0
  -11.6873   14.7888  -26.6333 H   0  0  0  0  0  0  0  0  0  0  0  0
  -12.7354   16.1869  -25.3438 H   0  0  0  0  0  0  0  0  0  0  0  0
  1  2  1  0
  2  3  1  0
  3  4  1  0
  4  5  1  0
  5  6  1  0
  5  7  1  0
  7  8  1  0
  8  9  2  0
  9 10  1  0
 10 11  2  0
 11 12  1  0
 12 13  2  0
 13 14  1  0
 14 15  2  0
 15 16  1  0
  4 17  1  0
  3 18  1  0
  6  2  1  0
 11  7  1  0
 15 10  1  0
  1 19  1  0
  1 20  1  0
  2 21  1  0
  3 22  1  0
  4 23  1  0
  5 24  1  0
  8 25  1  0
 13 26  1  0
 16 27  1  0
 16 28  1  0
 17 29  1  0
 18 30  1  0
M  RAD  1   1   2
M  END
$$$$

     RDKit          3D

 30 32  0  0  0  0  0  0  0  0999 V2000
  -12.9029   13.1490  -21.8346 C   0  0  0  0  0  3  0  0  0  0  0  0
  -12.7169   12.9606  -23.2978 C   0  0  0  0  0  0  0  0  0  0  0  0
  -13.1252   14.1996  -24.1058 C   0  0  0  0  0  0  0  0  0  0  0  0
  -12.5070   13.8169  -25.4578 C   0  0  0  0  0  0  0  0  0  0  0  0
  -11.2777   13.0700  -25.0075 C   0  0  0  0  0  0  0  0  0  0  0  0
  -11.4070   12.7992  -23.6695 O   0  0  0  0  0  0  0  0  0  0  0  0
  -11.1310   11.8645  -25.7751 N   0  0  0  0  0  0  0  0  0  0  0  0
  -10.9603   11.8420  -27.1081 C   0  0  0  0  0  0  0  0  0  0  0  0
  -10.8654   10.5424  -27.4381 N   0  0  0  0  0  0  0  0  0  0  0  0
  -10.9750    9.7676  -26.3301 C   0  0  0  0  0  0  0  0  0  0  0  0
  -11.1440   10.6134  -25.2735 C   0  0  0  0  0  0  0  0  0  0  0  0
  -11.2805   10.0837  -24.0330 N   0  0  0  0  0  0  0  0  0  0  0  0
  -11.2537    8.7568  -23.8195 C   0  0  0  0  0  0  0  0  0  0  0  0
  -11.0860    7.9379  -24.8751 N   0  0  0  0  0  0  0  0  0  0  0  0
  -10.9442    8.4048  -26.1370 C   0  0  0  0  0  0  0  0  0  0  0  0
  -10.7667    7.5495  -27.2578 N   0  0  0  0  0  0  0  0  0  0  0  0
  -12.2444   14.9084  -26.2406 O   0  0  0  0  0  0  0  0  0  0  0  0
  -12.5391   15.3417  -23.5952 O   0  0  0  0  0  0  0  0  0  0  0  0
  -13.5146   12.2975  -21.4295 H   0  0  0  0  0  0  0  0  0  0  0  0
  -13.2880   14.1325  -21.5343 H   0  0  0  0  0  0  0  0  0  0  0  0
  -13.3555   12.1323  -23.7222 H   0  0  0  0  0  0  0  0  0  0  0  0
  -14.2073   14.3051  -24.1578 H   0  0  0  0  0  0  0  0  0  0  0  0
  -13.2280   13.1133  -25.9231 H   0  0  0  0  0  0  0  0  0  0  0  0
  -10.4047   13.7722  -25.1497 H   0  0  0  0  0  0  0  0  0  0  0  0
  -10.9059   12.6871  -27.8048 H   0  0  0  0  0  0  0  0  0  0  0  0
  -11.3588    8.2978  -22.8481 H   0  0  0  0  0  0  0  0  0  0  0  0
   -9.9464    6.9401  -27.3393 H   0  0  0  0  0  0  0  0  0  0  0  0
  -11.4784    7.5312  -28.0210 H   0  0  0  0  0  0  0  0  0  0  0  0
  -11.2957   14.8614  -26.5679 H   0  0  0  0  0  0  0  0  0  0  0  0
  -11.7269   15.1697  -23.0680 H   0  0  0  0  0  0  0  0  0  0  0  0
  1  2  1  0
  2  3  1  0
  3  4  1  0
  4  5  1  0
  5  6  1  0
  5  7  1  0
  7  8  1  0
  8  9  2  0
  9 10  1  0
 10 11  2  0
 11 12  1  0
 12 13  2  0
 13 14  1  0
 14 15  2  0
 15 16  1  0
  4 17  1  0
  3 18  1  0
  6  2  1  0
 11  7  1  0
 15 10  1  0
  1 19  1  0
  1 20  1  0
  2 21  1  0
  3 22  1  0
  4 23  1  0
  5 24  1  0
  8 25  1  0
 13 26  1  0
 16 27  1  0
 16 28  1  0
 17 29  1  0
 18 30  1  0
M  RAD  1   1   2
M  END
$$$$

     RDKit          3D

 30 32  0  0  0  0  0  0  0  0999 V2000
  -13.8666   13.6062  -22.2474 C   0  0  0  0  0  3  0  0  0  0  0  0
  -13.2737   13.4126  -23.6265 C   0  0  0  0  0  0  0  0  0  0  0  0
  -12.5236   14.6864  -24.0157 C   0  0  0  0  0  0  0  0  0  0  0  0
  -11.6053   14.1052  -25.1004 C   0  0  0  0  0  0  0  0  0  0  0  0
  -11.3562   12.7441  -24.5603 C   0  0  0  0  0  0  0  0  0  0  0  0
  -12.2265   12.5086  -23.5170 O   0  0  0  0  0  0  0  0  0  0  0  0
  -11.4237   11.6944  -25.5291 N   0  0  0  0  0  0  0  0  0  0  0  0
  -11.8319   11.7100  -26.7947 C   0  0  0  0  0  0  0  0  0  0  0  0
  -11.7240   10.4840  -27.3420 N   0  0  0  0  0  0  0  0  0  0  0  0
  -11.2309    9.6668  -26.3898 C   0  0  0  0  0  0  0  0  0  0  0  0
  -11.0456   10.4240  -25.2635 C   0  0  0  0  0  0  0  0  0  0  0  0
  -10.5561    9.8400  -24.1541 N   0  0  0  0  0  0  0  0  0  0  0  0
  -10.2335    8.5355  -24.0867 C   0  0  0  0  0  0  0  0  0  0  0  0
  -10.4132    7.7876  -25.1885 N   0  0  0  0  0  0  0  0  0  0  0  0
  -10.9054    8.3292  -26.3372 C   0  0  0  0  0  0  0  0  0  0  0  0
  -11.0857    7.5113  -27.4914 N   0  0  0  0  0  0  0  0  0  0  0  0
  -10.4636   14.9149  -25.0933 O   0  0  0  0  0  0  0  0  0  0  0  0
  -13.3616   15.6471  -24.5185 O   0  0  0  0  0  0  0  0  0  0  0  0
  -13.0562   13.4560  -21.4923 H   0  0  0  0  0  0  0  0  0  0  0  0
  -14.5564   12.7251  -22.0917 H   0  0  0  0  0  0  0  0  0  0  0  0
  -14.0163   13.1189  -24.3824 H   0  0  0  0  0  0  0  0  0  0  0  0
  -11.9212   15.0076  -23.1685 H   0  0  0  0  0  0  0  0  0  0  0  0
  -12.0841   14.1560  -26.0764 H   0  0  0  0  0  0  0  0  0  0  0  0
  -10.3218   12.7397  -24.1176 H   0  0  0  0  0  0  0  0  0  0  0  0
  -12.2014   12.5584  -27.3379 H   0  0  0  0  0  0  0  0  0  0  0  0
   -9.8472    8.1471  -23.1588 H   0  0  0  0  0  0  0  0  0  0  0  0
  -11.9587    7.5946  -28.0529 H   0  0  0  0  0  0  0  0  0  0  0  0
  -10.3479    6.8308  -27.7754 H   0  0  0  0  0  0  0  0  0  0  0  0
   -9.9619   14.7078  -24.2753 H   0  0  0  0  0  0  0  0  0  0  0  0
  -13.5506   16.3057  -23.7818 H   0  0  0  0  0  0  0  0  0  0  0  0
  1  2  1  0
  2  3  1  0
  3  4  1  0
  4  5  1  0
  5  6  1  0
  5  7  1  0
  7  8  1  0
  8  9  2  0
  9 10  1  0
 10 11  2  0
 11 12  1  0
 12 13  2  0
 13 14  1  0
 14 15  2  0
 15 16  1  0
  4 17  1  0
  3 18  1  0
  6  2  1  0
 11  7  1  0
 15 10  1  0
  1 19  1  0
  1 20  1  0
  2 21  1  0
  3 22  1  0
  4 23  1  0
  5 24  1  0
  8 25  1  0
 13 26  1  0
 16 27  1  0
 16 28  1  0
 17 29  1  0
 18 30  1  0
M  RAD  1   1   2
M  END
$$$$

     RDKit          3D

 30 32  0  0  0  0  0  0  0  0999 V2000
  -13.5716   14.0399  -22.1736 C   0  0  0  0  0  3  0  0  0  0  0  0
  -13.4219   14.1282  -23.6742 C   0  0  0  0  0  0  0  0  0  0  0  0
  -12.1999   14.9035  -24.0776 C   0  0  0  0  0  0  0  0  0  0  0  0
  -11.5782   13.9590  -25.1153 C   0  0  0  0  0  0  0  0  0  0  0  0
  -12.0173   12.6204  -24.5192 C   0  0  0  0  0  0  0  0  0  0  0  0
  -13.3686   12.8933  -24.2591 O   0  0  0  0  0  0  0  0  0  0  0  0
  -11.8403   11.5312  -25.4211 N   0  0  0  0  0  0  0  0  0  0  0  0
  -12.3603   11.4120  -26.6569 C   0  0  0  0  0  0  0  0  0  0  0  0
  -11.9556   10.2353  -27.1812 N   0  0  0  0  0  0  0  0  0  0  0  0
  -11.1836    9.6030  -26.2938 C   0  0  0  0  0  0  0  0  0  0  0  0
  -11.1097   10.4269  -25.1735 C   0  0  0  0  0  0  0  0  0  0  0  0
  -10.3699    9.9723  -24.1461 N   0  0  0  0  0  0  0  0  0  0  0  0
   -9.7291    8.7786  -24.1922 C   0  0  0  0  0  0  0  0  0  0  0  0
   -9.7989    7.9870  -25.2661 N   0  0  0  0  0  0  0  0  0  0  0  0
  -10.5295    8.3947  -26.3292 C   0  0  0  0  0  0  0  0  0  0  0  0
  -10.5735    7.5190  -27.4470 N   0  0  0  0  0  0  0  0  0  0  0  0
  -12.2211   14.1731  -26.3340 O   0  0  0  0  0  0  0  0  0  0  0  0
  -11.2980   15.0306  -22.9958 O   0  0  0  0  0  0  0  0  0  0  0  0
  -12.9782   14.7837  -21.6286 H   0  0  0  0  0  0  0  0  0  0  0  0
  -14.6368   14.0765  -21.8731 H   0  0  0  0  0  0  0  0  0  0  0  0
  -14.3071   14.6955  -24.0561 H   0  0  0  0  0  0  0  0  0  0  0  0
  -12.4035   15.8934  -24.4868 H   0  0  0  0  0  0  0  0  0  0  0  0
  -10.4927   14.0567  -25.1653 H   0  0  0  0  0  0  0  0  0  0  0  0
  -11.5275   12.4675  -23.5593 H   0  0  0  0  0  0  0  0  0  0  0  0
  -12.9982   12.0917  -27.2062 H   0  0  0  0  0  0  0  0  0  0  0  0
   -9.1422    8.4438  -23.3469 H   0  0  0  0  0  0  0  0  0  0  0  0
   -9.6681    7.1851  -27.8415 H   0  0  0  0  0  0  0  0  0  0  0  0
  -11.4469    7.1824  -27.9059 H   0  0  0  0  0  0  0  0  0  0  0  0
  -13.1973   14.2262  -26.1230 H   0  0  0  0  0  0  0  0  0  0  0  0
  -11.2249   14.1822  -22.4933 H   0  0  0  0  0  0  0  0  0  0  0  0
  1  2  1  0
  2  3  1  0
  3  4  1  0
  4  5  1  0
  5  6  1  0
  5  7  1  0
  7  8  1  0
  8  9  2  0
  9 10  1  0
 10 11  2  0
 11 12  1  0
 12 13  2  0
 13 14  1  0
 14 15  2  0
 15 16  1  0
  4 17  1  0
  3 18  1  0
  6  2  1  0
 11  7  1  0
 15 10  1  0
  1 19  1  0
  1 20  1  0
  2 21  1  0
  3 22  1  0
  4 23  1  0
  5 24  1  0
  8 25  1  0
 13 26  1  0
 16 27  1  0
 16 28  1  0
 17 29  1  0
 18 30  1  0
M  RAD  1   1   2
M  END
$$$$

     RDKit          3D

 30 32  0  0  0  0  0  0  0  0999 V2000
  -11.9268   14.2382  -21.8207 C   0  0  0  0  0  3  0  0  0  0  0  0
  -11.7745   14.2268  -23.3202 C   0  0  0  0  0  0  0  0  0  0  0  0
  -13.0975   14.4897  -23.9677 C   0  0  0  0  0  0  0  0  0  0  0  0
  -13.1618   13.3735  -25.0191 C   0  0  0  0  0  0  0  0  0  0  0  0
  -11.6675   13.0402  -25.1214 C   0  0  0  0  0  0  0  0  0  0  0  0
  -11.3056   13.0048  -23.8025 O   0  0  0  0  0  0  0  0  0  0  0  0
  -11.4480   11.8015  -25.8248 N   0  0  0  0  0  0  0  0  0  0  0  0
  -11.5975   11.6777  -27.1569 C   0  0  0  0  0  0  0  0  0  0  0  0
  -11.3304   10.4282  -27.5296 N   0  0  0  0  0  0  0  0  0  0  0  0
  -11.0018    9.7244  -26.4286 C   0  0  0  0  0  0  0  0  0  0  0  0
  -11.0793   10.5995  -25.3605 C   0  0  0  0  0  0  0  0  0  0  0  0
  -10.8019   10.1657  -24.1305 N   0  0  0  0  0  0  0  0  0  0  0  0
  -10.4460    8.8579  -23.9588 C   0  0  0  0  0  0  0  0  0  0  0  0
  -10.3714    8.0062  -25.0040 N   0  0  0  0  0  0  0  0  0  0  0  0
  -10.6431    8.4028  -26.2617 C   0  0  0  0  0  0  0  0  0  0  0  0
  -10.5866    7.5771  -27.3920 N   0  0  0  0  0  0  0  0  0  0  0  0
  -13.8050   12.3057  -24.4410 O   0  0  0  0  0  0  0  0  0  0  0  0
  -13.0825   15.6880  -24.7159 O   0  0  0  0  0  0  0  0  0  0  0  0
  -12.0862   15.2891  -21.5166 H   0  0  0  0  0  0  0  0  0  0  0  0
  -11.0292   13.8118  -21.3733 H   0  0  0  0  0  0  0  0  0  0  0  0
  -11.0574   15.0078  -23.6617 H   0  0  0  0  0  0  0  0  0  0  0  0
  -13.9507   14.4503  -23.2919 H   0  0  0  0  0  0  0  0  0  0  0  0
  -13.5756   13.7172  -25.9653 H   0  0  0  0  0  0  0  0  0  0  0  0
  -11.1546   13.9014  -25.6166 H   0  0  0  0  0  0  0  0  0  0  0  0
  -11.8909   12.4583  -27.8555 H   0  0  0  0  0  0  0  0  0  0  0  0
  -10.2102    8.4511  -22.9848 H   0  0  0  0  0  0  0  0  0  0  0  0
   -9.7862    7.5833  -28.0553 H   0  0  0  0  0  0  0  0  0  0  0  0
  -11.3895    6.9304  -27.5667 H   0  0  0  0  0  0  0  0  0  0  0  0
  -14.6537   12.0509  -24.8669 H   0  0  0  0  0  0  0  0  0  0  0  0
  -13.6791   15.6195  -25.5119 H   0  0  0  0  0  0  0  0  0  0  0  0
  1  2  1  0
  2  3  1  0
  3  4  1  0
  4  5  1  0
  5  6  1  0
  5  7  1  0
  7  8  1  0
  8  9  2  0
  9 10  1  0
 10 11  2  0
 11 12  1  0
 12 13  2  0
 13 14  1  0
 14 15  2  0
 15 16  1  0
  4 17  1  0
  3 18  1  0
  6  2  1  0
 11  7  1  0
 15 10  1  0
  1 19  1  0
  1 20  1  0
  2 21  1  0
  3 22  1  0
  4 23  1  0
  5 24  1  0
  8 25  1  0
 13 26  1  0
 16 27  1  0
 16 28  1  0
 17 29  1  0
 18 30  1  0
M  RAD  1   1   2
M  END
$$$$

     RDKit          3D

 30 32  0  0  0  0  0  0  0  0999 V2000
  -14.2775   14.2976  -22.6532 C   0  0  0  0  0  3  0  0  0  0  0  0
  -12.9086   13.8115  -22.9994 C   0  0  0  0  0  0  0  0  0  0  0  0
  -12.1216   14.7826  -23.8483 C   0  0  0  0  0  0  0  0  0  0  0  0
  -11.1940   13.8523  -24.6143 C   0  0  0  0  0  0  0  0  0  0  0  0
  -11.7147   12.5139  -24.2330 C   0  0  0  0  0  0  0  0  0  0  0  0
  -13.0638   12.7341  -23.9035 O   0  0  0  0  0  0  0  0  0  0  0  0
  -11.6584   11.5325  -25.2835 N   0  0  0  0  0  0  0  0  0  0  0  0
  -12.1720   11.6298  -26.5041 C   0  0  0  0  0  0  0  0  0  0  0  0
  -11.8820   10.4841  -27.1457 N   0  0  0  0  0  0  0  0  0  0  0  0
  -11.1919    9.6763  -26.3316 C   0  0  0  0  0  0  0  0  0  0  0  0
  -11.0468   10.3345  -25.1501 C   0  0  0  0  0  0  0  0  0  0  0  0
  -10.3773    9.7562  -24.1097 N   0  0  0  0  0  0  0  0  0  0  0  0
   -9.8556    8.5282  -24.2472 C   0  0  0  0  0  0  0  0  0  0  0  0
  -10.0104    7.8967  -25.4216 N   0  0  0  0  0  0  0  0  0  0  0  0
  -10.6473    8.4029  -26.4650 C   0  0  0  0  0  0  0  0  0  0  0  0
  -10.8239    7.7583  -27.7117 N   0  0  0  0  0  0  0  0  0  0  0  0
  -11.2153   14.1303  -25.9562 O   0  0  0  0  0  0  0  0  0  0  0  0
  -12.9660   15.4861  -24.6778 O   0  0  0  0  0  0  0  0  0  0  0  0
  -14.3423   14.3291  -21.5323 H   0  0  0  0  0  0  0  0  0  0  0  0
  -15.0893   13.6327  -23.0057 H   0  0  0  0  0  0  0  0  0  0  0  0
  -12.3078   13.5104  -22.1267 H   0  0  0  0  0  0  0  0  0  0  0  0
  -11.5077   15.4677  -23.2665 H   0  0  0  0  0  0  0  0  0  0  0  0
  -10.1396   13.9398  -24.2297 H   0  0  0  0  0  0  0  0  0  0  0  0
  -11.2240   12.1828  -23.3146 H   0  0  0  0  0  0  0  0  0  0  0  0
  -12.7301   12.4872  -26.9135 H   0  0  0  0  0  0  0  0  0  0  0  0
   -9.3162    8.0631  -23.4080 H   0  0  0  0  0  0  0  0  0  0  0  0
  -10.5879    8.2375  -28.6247 H   0  0  0  0  0  0  0  0  0  0  0  0
  -11.1941    6.7794  -27.8120 H   0  0  0  0  0  0  0  0  0  0  0  0
  -10.6024   13.5422  -26.4357 H   0  0  0  0  0  0  0  0  0  0  0  0
  -12.4230   16.0530  -25.2588 H   0  0  0  0  0  0  0  0  0  0  0  0
  1  2  1  0
  2  3  1  0
  3  4  1  0
  4  5  1  0
  5  6  1  0
  5  7  1  0
  7  8  1  0
  8  9  2  0
  9 10  1  0
 10 11  2  0
 11 12  1  0
 12 13  2  0
 13 14  1  0
 14 15  2  0
 15 16  1  0
  4 17  1  0
  3 18  1  0
  6  2  1  0
 11  7  1  0
 15 10  1  0
  1 19  1  0
  1 20  1  0
  2 21  1  0
  3 22  1  0
  4 23  1  0
  5 24  1  0
  8 25  1  0
 13 26  1  0
 16 27  1  0
 16 28  1  0
 17 29  1  0
 18 30  1  0
M  RAD  1   1   2
M  END
$$$$

     RDKit          3D

 30 32  0  0  0  0  0  0  0  0999 V2000
  -11.0756   15.0740  -23.0647 C   0  0  0  0  0  3  0  0  0  0  0  0
  -12.0602   13.9058  -22.9774 C   0  0  0  0  0  0  0  0  0  0  0  0
  -13.2598   14.1676  -23.8480 C   0  0  0  0  0  0  0  0  0  0  0  0
  -12.8994   13.4846  -25.1484 C   0  0  0  0  0  0  0  0  0  0  0  0
  -11.4983   12.9799  -24.8429 C   0  0  0  0  0  0  0  0  0  0  0  0
  -11.4599   12.7355  -23.4981 O   0  0  0  0  0  0  0  0  0  0  0  0
  -11.2652   11.8131  -25.6586 N   0  0  0  0  0  0  0  0  0  0  0  0
  -11.1499   11.8814  -27.0006 C   0  0  0  0  0  0  0  0  0  0  0  0
  -10.9395   10.6196  -27.4332 N   0  0  0  0  0  0  0  0  0  0  0  0
  -10.9234    9.7767  -26.3816 C   0  0  0  0  0  0  0  0  0  0  0  0
  -11.1323   10.5398  -25.2398 C   0  0  0  0  0  0  0  0  0  0  0  0
  -11.1722    9.9913  -24.0121 N   0  0  0  0  0  0  0  0  0  0  0  0
  -10.9992    8.6520  -23.9292 C   0  0  0  0  0  0  0  0  0  0  0  0
  -10.7935    7.8869  -25.0340 N   0  0  0  0  0  0  0  0  0  0  0  0
  -10.7494    8.4114  -26.2716 C   0  0  0  0  0  0  0  0  0  0  0  0
  -10.5393    7.6623  -27.4467 N   0  0  0  0  0  0  0  0  0  0  0  0
  -12.8179   14.3770  -26.2129 O   0  0  0  0  0  0  0  0  0  0  0  0
  -14.3922   13.6490  -23.2563 O   0  0  0  0  0  0  0  0  0  0  0  0
  -10.9843   15.5806  -22.0820 H   0  0  0  0  0  0  0  0  0  0  0  0
  -11.4948   15.8222  -23.7690 H   0  0  0  0  0  0  0  0  0  0  0  0
  -12.3308   13.7460  -21.9147 H   0  0  0  0  0  0  0  0  0  0  0  0
  -13.3361   15.2541  -24.0608 H   0  0  0  0  0  0  0  0  0  0  0  0
  -13.6075   12.6721  -25.3620 H   0  0  0  0  0  0  0  0  0  0  0  0
  -10.8011   13.8162  -25.0741 H   0  0  0  0  0  0  0  0  0  0  0  0
  -11.2062   12.7463  -27.6514 H   0  0  0  0  0  0  0  0  0  0  0  0
  -11.0216    8.1538  -22.9634 H   0  0  0  0  0  0  0  0  0  0  0  0
  -11.3005    7.1001  -27.8483 H   0  0  0  0  0  0  0  0  0  0  0  0
   -9.6130    7.6849  -27.8989 H   0  0  0  0  0  0  0  0  0  0  0  0
  -12.0487   14.9990  -26.0377 H   0  0  0  0  0  0  0  0  0  0  0  0
  -15.1945   14.2181  -23.4700 H   0  0  0  0  0  0  0  0  0  0  0  0
  1  2  1  0
  2  3  1  0
  3  4  1  0
  4  5  1  0
  5  6  1  0
  5  7  1  0
  7  8  1  0
  8  9  2  0
  9 10  1  0
 10 11  2  0
 11 12  1  0
 12 13  2  0
 13 14  1  0
 14 15  2  0
 15 16  1  0
  4 17  1  0
  3 18  1  0
  6  2  1  0
 11  7  1  0
 15 10  1  0
  1 19  1  0
  1 20  1  0
  2 21  1  0
  3 22  1  0
  4 23  1  0
  5 24  1  0
  8 25  1  0
 13 26  1  0
 16 27  1  0
 16 28  1  0
 17 29  1  0
 18 30  1  0
M  RAD  1   1   2
M  END
$$$$

     RDKit          3D

 30 32  0  0  0  0  0  0  0  0999 V2000
  -14.3899   14.8100  -23.3362 C   0  0  0  0  0  3  0  0  0  0  0  0
  -13.2537   14.3911  -24.2338 C   0  0  0  0  0  0  0  0  0  0  0  0
  -11.9401   14.3608  -23.4754 C   0  0  0  0  0  0  0  0  0  0  0  0
  -11.1324   13.3926  -24.3509 C   0  0  0  0  0  0  0  0  0  0  0  0
  -12.1228   12.9263  -25.3263 C   0  0  0  0  0  0  0  0  0  0  0  0
  -13.3592   13.0715  -24.6529 O   0  0  0  0  0  0  0  0  0  0  0  0
  -12.0128   11.5639  -25.7491 N   0  0  0  0  0  0  0  0  0  0  0  0
  -12.9626   10.9924  -26.5146 C   0  0  0  0  0  0  0  0  0  0  0  0
  -12.6220    9.7429  -26.7610 N   0  0  0  0  0  0  0  0  0  0  0  0
  -11.4580    9.4814  -26.1672 C   0  0  0  0  0  0  0  0  0  0  0  0
  -11.0834   10.6378  -25.5319 C   0  0  0  0  0  0  0  0  0  0  0  0
   -9.9496   10.6809  -24.8470 N   0  0  0  0  0  0  0  0  0  0  0  0
   -9.1726    9.5807  -24.7822 C   0  0  0  0  0  0  0  0  0  0  0  0
   -9.5280    8.4381  -25.4011 N   0  0  0  0  0  0  0  0  0  0  0  0
  -10.6702    8.3592  -26.1039 C   0  0  0  0  0  0  0  0  0  0  0  0
  -11.1016    7.1934  -26.7761 N   0  0  0  0  0  0  0  0  0  0  0  0
  -10.1682   14.1657  -25.0130 O   0  0  0  0  0  0  0  0  0  0  0  0
  -12.2000   13.8194  -22.2333 O   0  0  0  0  0  0  0  0  0  0  0  0
  -15.2790   14.9753  -23.9537 H   0  0  0  0  0  0  0  0  0  0  0  0
  -14.0521   15.7183  -22.7944 H   0  0  0  0  0  0  0  0  0  0  0  0
  -13.1857   15.0203  -25.1405 H   0  0  0  0  0  0  0  0  0  0  0  0
  -11.4684   15.3602  -23.4395 H   0  0  0  0  0  0  0  0  0  0  0  0
  -10.6531   12.6554  -23.7189 H   0  0  0  0  0  0  0  0  0  0  0  0
  -12.1891   13.6025  -26.2047 H   0  0  0  0  0  0  0  0  0  0  0  0
  -13.8888   11.4478  -26.8985 H   0  0  0  0  0  0  0  0  0  0  0  0
   -8.2359    9.5541  -24.2386 H   0  0  0  0  0  0  0  0  0  0  0  0
  -11.9185    6.6615  -26.3975 H   0  0  0  0  0  0  0  0  0  0  0  0
  -10.6473    6.8233  -27.6429 H   0  0  0  0  0  0  0  0  0  0  0  0
  -10.2183   15.1167  -24.7735 H   0  0  0  0  0  0  0  0  0  0  0  0
  -11.4967   13.1847  -21.9218 H   0  0  0  0  0  0  0  0  0  0  0  0
  1  2  1  0
  2  3  1  0
  3  4  1  0
  4  5  1  0
  5  6  1  0
  5  7  1  0
  7  8  1  0
  8  9  2  0
  9 10  1  0
 10 11  2  0
 11 12  1  0
 12 13  2  0
 13 14  1  0
 14 15  2  0
 15 16  1  0
  4 17  1  0
  3 18  1  0
  6  2  1  0
 11  7  1  0
 15 10  1  0
  1 19  1  0
  1 20  1  0
  2 21  1  0
  3 22  1  0
  4 23  1  0
  5 24  1  0
  8 25  1  0
 13 26  1  0
 16 27  1  0
 16 28  1  0
 17 29  1  0
 18 30  1  0
M  RAD  1   1   2
M  END
$$$$

     RDKit          3D

 30 32  0  0  0  0  0  0  0  0999 V2000
  -13.7085   15.4747  -25.2064 C   0  0  0  0  0  3  0  0  0  0  0  0
  -13.2987   14.4671  -24.1643 C   0  0  0  0  0  0  0  0  0  0  0  0
  -11.8358   14.6315  -23.8130 C   0  0  0  0  0  0  0  0  0  0  0  0
  -11.3069   13.2228  -24.0249 C   0  0  0  0  0  0  0  0  0  0  0  0
  -12.2302   12.7896  -25.1710 C   0  0  0  0  0  0  0  0  0  0  0  0
  -13.4621   13.1901  -24.6608 O   0  0  0  0  0  0  0  0  0  0  0  0
  -12.1830   11.3839  -25.3930 N   0  0  0  0  0  0  0  0  0  0  0  0
  -13.2052   10.5248  -25.3285 C   0  0  0  0  0  0  0  0  0  0  0  0
  -12.7540    9.2860  -25.6022 N   0  0  0  0  0  0  0  0  0  0  0  0
  -11.4382    9.3267  -25.8468 C   0  0  0  0  0  0  0  0  0  0  0  0
  -11.0920   10.6659  -25.7097 C   0  0  0  0  0  0  0  0  0  0  0  0
   -9.7950   10.9906  -25.9077 N   0  0  0  0  0  0  0  0  0  0  0  0
   -8.8976   10.0352  -26.2235 C   0  0  0  0  0  0  0  0  0  0  0  0
   -9.2515    8.7414  -26.3521 N   0  0  0  0  0  0  0  0  0  0  0  0
  -10.5325    8.3394  -26.1690 C   0  0  0  0  0  0  0  0  0  0  0  0
  -10.8860    6.9699  -26.3092 N   0  0  0  0  0  0  0  0  0  0  0  0
  -11.6039   12.5077  -22.8674 O   0  0  0  0  0  0  0  0  0  0  0  0
  -11.6459   15.0608  -22.5065 O   0  0  0  0  0  0  0  0  0  0  0  0
  -12.9356   16.2709  -25.3117 H   0  0  0  0  0  0  0  0  0  0  0  0
  -13.8663   14.9600  -26.1839 H   0  0  0  0  0  0  0  0  0  0  0  0
  -13.8916   14.6153  -23.2419 H   0  0  0  0  0  0  0  0  0  0  0  0
  -11.3821   15.3493  -24.5494 H   0  0  0  0  0  0  0  0  0  0  0  0
  -10.2543   13.1923  -24.3080 H   0  0  0  0  0  0  0  0  0  0  0  0
  -11.9341   13.3987  -26.0489 H   0  0  0  0  0  0  0  0  0  0  0  0
  -14.2378   10.7702  -25.0945 H   0  0  0  0  0  0  0  0  0  0  0  0
   -7.8533   10.2666  -26.3874 H   0  0  0  0  0  0  0  0  0  0  0  0
  -10.6111    6.3951  -27.1295 H   0  0  0  0  0  0  0  0  0  0  0  0
  -11.4477    6.5427  -25.5407 H   0  0  0  0  0  0  0  0  0  0  0  0
  -12.5840   12.6485  -22.7046 H   0  0  0  0  0  0  0  0  0  0  0  0
  -12.2938   15.7660  -22.2650 H   0  0  0  0  0  0  0  0  0  0  0  0
  1  2  1  0
  2  3  1  0
  3  4  1  0
  4  5  1  0
  5  6  1  0
  5  7  1  0
  7  8  1  0
  8  9  2  0
  9 10  1  0
 10 11  2  0
 11 12  1  0
 12 13  2  0
 13 14  1  0
 14 15  2  0
 15 16  1  0
  4 17  1  0
  3 18  1  0
  6  2  1  0
 11  7  1  0
 15 10  1  0
  1 19  1  0
  1 20  1  0
  2 21  1  0
  3 22  1  0
  4 23  1  0
  5 24  1  0
  8 25  1  0
 13 26  1  0
 16 27  1  0
 16 28  1  0
 17 29  1  0
 18 30  1  0
M  RAD  1   1   2
M  END
$$$$

     RDKit          3D

 30 32  0  0  0  0  0  0  0  0999 V2000
  -13.2343   12.9166  -22.1043 C   0  0  0  0  0  3  0  0  0  0  0  0
  -12.6825   12.9278  -23.4966 C   0  0  0  0  0  0  0  0  0  0  0  0
  -13.0281   14.2011  -24.2480 C   0  0  0  0  0  0  0  0  0  0  0  0
  -11.9397   14.2170  -25.3152 C   0  0  0  0  0  0  0  0  0  0  0  0
  -11.0108   13.1524  -24.8607 C   0  0  0  0  0  0  0  0  0  0  0  0
  -11.3075   12.8411  -23.5446 O   0  0  0  0  0  0  0  0  0  0  0  0
  -10.9966   11.9724  -25.6886 N   0  0  0  0  0  0  0  0  0  0  0  0
  -10.9227   11.9352  -27.0213 C   0  0  0  0  0  0  0  0  0  0  0  0
  -10.9353   10.6222  -27.3974 N   0  0  0  0  0  0  0  0  0  0  0  0
  -11.0161    9.8379  -26.3117 C   0  0  0  0  0  0  0  0  0  0  0  0
  -11.0543   10.7174  -25.2300 C   0  0  0  0  0  0  0  0  0  0  0  0
  -11.1359   10.1310  -24.0162 N   0  0  0  0  0  0  0  0  0  0  0  0
  -11.1796    8.8049  -23.8210 C   0  0  0  0  0  0  0  0  0  0  0  0
  -11.1425    7.9781  -24.8626 N   0  0  0  0  0  0  0  0  0  0  0  0
  -11.0608    8.4717  -26.1185 C   0  0  0  0  0  0  0  0  0  0  0  0
  -11.0205    7.6015  -27.2368 N   0  0  0  0  0  0  0  0  0  0  0  0
  -12.5041   13.9712  -26.5673 O   0  0  0  0  0  0  0  0  0  0  0  0
  -12.9555   15.3087  -23.4150 O   0  0  0  0  0  0  0  0  0  0  0  0
  -13.5214   11.8795  -21.8385 H   0  0  0  0  0  0  0  0  0  0  0  0
  -12.5162   13.2503  -21.3383 H   0  0  0  0  0  0  0  0  0  0  0  0
  -13.1199   12.0874  -24.0479 H   0  0  0  0  0  0  0  0  0  0  0  0
  -14.0139   14.0677  -24.7212 H   0  0  0  0  0  0  0  0  0  0  0  0
  -11.4682   15.2222  -25.3565 H   0  0  0  0  0  0  0  0  0  0  0  0
   -9.9741   13.6075  -24.9229 H   0  0  0  0  0  0  0  0  0  0  0  0
  -10.8606   12.7918  -27.7056 H   0  0  0  0  0  0  0  0  0  0  0  0
  -11.2451    8.4321  -22.8042 H   0  0  0  0  0  0  0  0  0  0  0  0
  -11.9252    7.3829  -27.7114 H   0  0  0  0  0  0  0  0  0  0  0  0
  -10.0942    7.2267  -27.5258 H   0  0  0  0  0  0  0  0  0  0  0  0
  -12.9142   14.8197  -26.8767 H   0  0  0  0  0  0  0  0  0  0  0  0
  -13.3811   16.0806  -23.8272 H   0  0  0  0  0  0  0  0  0  0  0  0
  1  2  1  0
  2  3  1  0
  3  4  1  0
  4  5  1  0
  5  6  1  0
  5  7  1  0
  7  8  1  0
  8  9  2  0
  9 10  1  0
 10 11  2  0
 11 12  1  0
 12 13  2  0
 13 14  1  0
 14 15  2  0
 15 16  1  0
  4 17  1  0
  3 18  1  0
  6  2  1  0
 11  7  1  0
 15 10  1  0
  1 19  1  0
  1 20  1  0
  2 21  1  0
  3 22  1  0
  4 23  1  0
  5 24  1  0
  8 25  1  0
 13 26  1  0
 16 27  1  0
 16 28  1  0
 17 29  1  0
 18 30  1  0
M  RAD  1   1   2
M  END
$$$$

     RDKit          3D

 30 32  0  0  0  0  0  0  0  0999 V2000
  -13.4507   13.6040  -22.1094 C   0  0  0  0  0  3  0  0  0  0  0  0
  -12.1916   13.7829  -22.9332 C   0  0  0  0  0  0  0  0  0  0  0  0
  -12.3736   14.7797  -24.0408 C   0  0  0  0  0  0  0  0  0  0  0  0
  -12.1053   13.9459  -25.2813 C   0  0  0  0  0  0  0  0  0  0  0  0
  -12.4272   12.5491  -24.7295 C   0  0  0  0  0  0  0  0  0  0  0  0
  -11.7772   12.5863  -23.5159 O   0  0  0  0  0  0  0  0  0  0  0  0
  -11.9646   11.5502  -25.6292 N   0  0  0  0  0  0  0  0  0  0  0  0
  -12.0142   11.5573  -26.9741 C   0  0  0  0  0  0  0  0  0  0  0  0
  -11.4641   10.4124  -27.4247 N   0  0  0  0  0  0  0  0  0  0  0  0
  -11.0540    9.6538  -26.3887 C   0  0  0  0  0  0  0  0  0  0  0  0
  -11.3796   10.3911  -25.2624 C   0  0  0  0  0  0  0  0  0  0  0  0
  -11.0802    9.8688  -24.0550 N   0  0  0  0  0  0  0  0  0  0  0  0
  -10.4785    8.6593  -23.9293 C   0  0  0  0  0  0  0  0  0  0  0  0
  -10.1785    7.9743  -25.0462 N   0  0  0  0  0  0  0  0  0  0  0  0
  -10.4463    8.4306  -26.2869 C   0  0  0  0  0  0  0  0  0  0  0  0
  -10.1384    7.7257  -27.4614 N   0  0  0  0  0  0  0  0  0  0  0  0
  -13.0362   14.2513  -26.2424 O   0  0  0  0  0  0  0  0  0  0  0  0
  -11.5667   15.8853  -23.9457 O   0  0  0  0  0  0  0  0  0  0  0  0
  -14.3637   13.6414  -22.7069 H   0  0  0  0  0  0  0  0  0  0  0  0
  -13.4681   14.3755  -21.3170 H   0  0  0  0  0  0  0  0  0  0  0  0
  -11.3983   14.1122  -22.2112 H   0  0  0  0  0  0  0  0  0  0  0  0
  -13.4336   15.1175  -24.0711 H   0  0  0  0  0  0  0  0  0  0  0  0
  -11.0594   14.0150  -25.6151 H   0  0  0  0  0  0  0  0  0  0  0  0
  -13.5118   12.5459  -24.5456 H   0  0  0  0  0  0  0  0  0  0  0  0
  -12.4341   12.3670  -27.5563 H   0  0  0  0  0  0  0  0  0  0  0  0
  -10.2336    8.2301  -22.9675 H   0  0  0  0  0  0  0  0  0  0  0  0
   -9.2732    7.9325  -27.9880 H   0  0  0  0  0  0  0  0  0  0  0  0
  -10.7828    6.9924  -27.8038 H   0  0  0  0  0  0  0  0  0  0  0  0
  -13.8746   13.7317  -26.1015 H   0  0  0  0  0  0  0  0  0  0  0  0
  -10.6138   15.7054  -24.1228 H   0  0  0  0  0  0  0  0  0  0  0  0
  1  2  1  0
  2  3  1  0
  3  4  1  0
  4  5  1  0
  5  6  1  0
  5  7  1  0
  7  8  1  0
  8  9  2  0
  9 10  1  0
 10 11  2  0
 11 12  1  0
 12 13  2  0
 13 14  1  0
 14 15  2  0
 15 16  1  0
  4 17  1  0
  3 18  1  0
  6  2  1  0
 11  7  1  0
 15 10  1  0
  1 19  1  0
  1 20  1  0
  2 21  1  0
  3 22  1  0
  4 23  1  0
  5 24  1  0
  8 25  1  0
 13 26  1  0
 16 27  1  0
 16 28  1  0
 17 29  1  0
 18 30  1  0
M  RAD  1   1   2
M  END
$$$$

     RDKit          3D

 30 32  0  0  0  0  0  0  0  0999 V2000
  -14.2368   14.5964  -23.7417 C   0  0  0  0  0  3  0  0  0  0  0  0
  -13.1082   14.6664  -24.7611 C   0  0  0  0  0  0  0  0  0  0  0  0
  -11.7549   14.7298  -24.0992 C   0  0  0  0  0  0  0  0  0  0  0  0
  -11.2000   13.3334  -24.4021 C   0  0  0  0  0  0  0  0  0  0  0  0
  -12.4879   12.5876  -24.6235 C   0  0  0  0  0  0  0  0  0  0  0  0
  -13.1505   13.4805  -25.4910 O   0  0  0  0  0  0  0  0  0  0  0  0
  -12.3261   11.2943  -25.1827 N   0  0  0  0  0  0  0  0  0  0  0  0
  -13.3368   10.5127  -25.6009 C   0  0  0  0  0  0  0  0  0  0  0  0
  -12.8376    9.3666  -26.0707 N   0  0  0  0  0  0  0  0  0  0  0  0
  -11.5209    9.4211  -25.9513 C   0  0  0  0  0  0  0  0  0  0  0  0
  -11.1699   10.6298  -25.3923 C   0  0  0  0  0  0  0  0  0  0  0  0
   -9.8754   10.8913  -25.1832 N   0  0  0  0  0  0  0  0  0  0  0  0
   -8.9348    9.9734  -25.5203 C   0  0  0  0  0  0  0  0  0  0  0  0
   -9.2788    8.7850  -26.0698 N   0  0  0  0  0  0  0  0  0  0  0  0
  -10.5617    8.4690  -26.3022 C   0  0  0  0  0  0  0  0  0  0  0  0
  -10.9633    7.2426  -26.8726 N   0  0  0  0  0  0  0  0  0  0  0  0
  -10.5007   12.8516  -23.2970 O   0  0  0  0  0  0  0  0  0  0  0  0
  -11.8825   14.7768  -22.6946 O   0  0  0  0  0  0  0  0  0  0  0  0
  -14.7153   15.5888  -23.5973 H   0  0  0  0  0  0  0  0  0  0  0  0
  -14.9825   13.8204  -24.0343 H   0  0  0  0  0  0  0  0  0  0  0  0
  -13.2736   15.5119  -25.4669 H   0  0  0  0  0  0  0  0  0  0  0  0
  -11.1131   15.5237  -24.4805 H   0  0  0  0  0  0  0  0  0  0  0  0
  -10.5947   13.3637  -25.3149 H   0  0  0  0  0  0  0  0  0  0  0  0
  -13.0769   12.6146  -23.6769 H   0  0  0  0  0  0  0  0  0  0  0  0
  -14.4058   10.7708  -25.5643 H   0  0  0  0  0  0  0  0  0  0  0  0
   -7.8773   10.1404  -25.3700 H   0  0  0  0  0  0  0  0  0  0  0  0
  -10.3186    6.4333  -26.8328 H   0  0  0  0  0  0  0  0  0  0  0  0
  -11.8862    7.1306  -27.3302 H   0  0  0  0  0  0  0  0  0  0  0  0
   -9.5485   13.0918  -23.4268 H   0  0  0  0  0  0  0  0  0  0  0  0
  -12.6964   14.2306  -22.4522 H   0  0  0  0  0  0  0  0  0  0  0  0
  1  2  1  0
  2  3  1  0
  3  4  1  0
  4  5  1  0
  5  6  1  0
  5  7  1  0
  7  8  1  0
  8  9  2  0
  9 10  1  0
 10 11  2  0
 11 12  1  0
 12 13  2  0
 13 14  1  0
 14 15  2  0
 15 16  1  0
  4 17  1  0
  3 18  1  0
  6  2  1  0
 11  7  1  0
 15 10  1  0
  1 19  1  0
  1 20  1  0
  2 21  1  0
  3 22  1  0
  4 23  1  0
  5 24  1  0
  8 25  1  0
 13 26  1  0
 16 27  1  0
 16 28  1  0
 17 29  1  0
 18 30  1  0
M  RAD  1   1   2
M  END
$$$$

     RDKit          3D

 30 32  0  0  0  0  0  0  0  0999 V2000
  -14.7592   14.2613  -24.4306 C   0  0  0  0  0  3  0  0  0  0  0  0
  -13.4264   14.0688  -23.7153 C   0  0  0  0  0  0  0  0  0  0  0  0
  -12.3663   14.7706  -24.4792 C   0  0  0  0  0  0  0  0  0  0  0  0
  -11.3272   13.7111  -24.7283 C   0  0  0  0  0  0  0  0  0  0  0  0
  -11.8928   12.4873  -24.1048 C   0  0  0  0  0  0  0  0  0  0  0  0
  -13.1195   12.7526  -23.5833 O   0  0  0  0  0  0  0  0  0  0  0  0
  -11.9627   11.3573  -25.0156 N   0  0  0  0  0  0  0  0  0  0  0  0
  -12.9917   11.0824  -25.8381 C   0  0  0  0  0  0  0  0  0  0  0  0
  -12.6919    9.9521  -26.5295 N   0  0  0  0  0  0  0  0  0  0  0  0
  -11.4760    9.4969  -26.1576 C   0  0  0  0  0  0  0  0  0  0  0  0
  -11.0358   10.3992  -25.2021 C   0  0  0  0  0  0  0  0  0  0  0  0
   -9.8231   10.1671  -24.6604 N   0  0  0  0  0  0  0  0  0  0  0  0
   -9.0513    9.1224  -25.0056 C   0  0  0  0  0  0  0  0  0  0  0  0
   -9.5119    8.2615  -25.9414 N   0  0  0  0  0  0  0  0  0  0  0  0
  -10.6965    8.4143  -26.5274 C   0  0  0  0  0  0  0  0  0  0  0  0
  -11.1455    7.4970  -27.4996 N   0  0  0  0  0  0  0  0  0  0  0  0
  -10.0716   14.0715  -24.1980 O   0  0  0  0  0  0  0  0  0  0  0  0
  -11.7776   15.7343  -23.6392 O   0  0  0  0  0  0  0  0  0  0  0  0
  -14.6869   13.8797  -25.4720 H   0  0  0  0  0  0  0  0  0  0  0  0
  -14.9267   15.3777  -24.4380 H   0  0  0  0  0  0  0  0  0  0  0  0
  -13.5637   14.4975  -22.6822 H   0  0  0  0  0  0  0  0  0  0  0  0
  -12.7399   15.2396  -25.4104 H   0  0  0  0  0  0  0  0  0  0  0  0
  -11.1804   13.6409  -25.8290 H   0  0  0  0  0  0  0  0  0  0  0  0
  -11.2034   12.1938  -23.2599 H   0  0  0  0  0  0  0  0  0  0  0  0
  -13.9072   11.6583  -25.9389 H   0  0  0  0  0  0  0  0  0  0  0  0
   -8.0670    8.9384  -24.5626 H   0  0  0  0  0  0  0  0  0  0  0  0
  -11.0584    7.7301  -28.4995 H   0  0  0  0  0  0  0  0  0  0  0  0
  -11.5586    6.5981  -27.2112 H   0  0  0  0  0  0  0  0  0  0  0  0
  -10.1914   14.2428  -23.2160 H   0  0  0  0  0  0  0  0  0  0  0  0
  -12.2967   15.8389  -22.7912 H   0  0  0  0  0  0  0  0  0  0  0  0
  1  2  1  0
  2  3  1  0
  3  4  1  0
  4  5  1  0
  5  6  1  0
  5  7  1  0
  7  8  1  0
  8  9  2  0
  9 10  1  0
 10 11  2  0
 11 12  1  0
 12 13  2  0
 13 14  1  0
 14 15  2  0
 15 16  1  0
  4 17  1  0
  3 18  1  0
  6  2  1  0
 11  7  1  0
 15 10  1  0
  1 19  1  0
  1 20  1  0
  2 21  1  0
  3 22  1  0
  4 23  1  0
  5 24  1  0
  8 25  1  0
 13 26  1  0
 16 27  1  0
 16 28  1  0
 17 29  1  0
 18 30  1  0
M  RAD  1   1   2
M  END
$$$$

     RDKit          3D

 30 32  0  0  0  0  0  0  0  0999 V2000
  -14.2394   15.4846  -24.2728 C   0  0  0  0  0  3  0  0  0  0  0  0
  -13.0143   14.6815  -24.5690 C   0  0  0  0  0  0  0  0  0  0  0  0
  -12.2723   14.2425  -23.3469 C   0  0  0  0  0  0  0  0  0  0  0  0
  -11.4388   13.0763  -23.8817 C   0  0  0  0  0  0  0  0  0  0  0  0
  -12.0949   12.8450  -25.2271 C   0  0  0  0  0  0  0  0  0  0  0  0
  -13.3333   13.4473  -25.1734 O   0  0  0  0  0  0  0  0  0  0  0  0
  -12.1744   11.4305  -25.4839 N   0  0  0  0  0  0  0  0  0  0  0  0
  -13.2275   10.6088  -25.5712 C   0  0  0  0  0  0  0  0  0  0  0  0
  -12.8039    9.3521  -25.8297 N   0  0  0  0  0  0  0  0  0  0  0  0
  -11.4646    9.3759  -25.9075 C   0  0  0  0  0  0  0  0  0  0  0  0
  -11.0780   10.6648  -25.6928 C   0  0  0  0  0  0  0  0  0  0  0  0
   -9.7588   10.9566  -25.7198 N   0  0  0  0  0  0  0  0  0  0  0  0
   -8.8213   10.0232  -25.9499 C   0  0  0  0  0  0  0  0  0  0  0  0
   -9.1891    8.7524  -26.1624 N   0  0  0  0  0  0  0  0  0  0  0  0
  -10.5067    8.4230  -26.1425 C   0  0  0  0  0  0  0  0  0  0  0  0
  -10.8443    7.0663  -26.3727 N   0  0  0  0  0  0  0  0  0  0  0  0
  -11.4817   11.9777  -23.0659 O   0  0  0  0  0  0  0  0  0  0  0  0
  -11.3838   15.1995  -22.8871 O   0  0  0  0  0  0  0  0  0  0  0  0
  -14.7165   15.7454  -25.2424 H   0  0  0  0  0  0  0  0  0  0  0  0
  -13.9434   16.4152  -23.7920 H   0  0  0  0  0  0  0  0  0  0  0  0
  -12.3020   15.1714  -25.2558 H   0  0  0  0  0  0  0  0  0  0  0  0
  -12.9176   13.8327  -22.5566 H   0  0  0  0  0  0  0  0  0  0  0  0
  -10.3975   13.3833  -24.0705 H   0  0  0  0  0  0  0  0  0  0  0  0
  -11.5164   13.3734  -26.0331 H   0  0  0  0  0  0  0  0  0  0  0  0
  -14.2517   10.9294  -25.4491 H   0  0  0  0  0  0  0  0  0  0  0  0
   -7.7741   10.2923  -25.9644 H   0  0  0  0  0  0  0  0  0  0  0  0
  -10.5759    6.3626  -25.6609 H   0  0  0  0  0  0  0  0  0  0  0  0
  -11.3491    6.8158  -27.2444 H   0  0  0  0  0  0  0  0  0  0  0  0
  -12.1472   11.9948  -22.3562 H   0  0  0  0  0  0  0  0  0  0  0  0
  -11.8076   15.9711  -22.4743 H   0  0  0  0  0  0  0  0  0  0  0  0
  1  2  1  0
  2  3  1  0
  3  4  1  0
  4  5  1  0
  5  6  1  0
  5  7  1  0
  7  8  1  0
  8  9  2  0
  9 10  1  0
 10 11  2  0
 11 12  1  0
 12 13  2  0
 13 14  1  0
 14 15  2  0
 15 16  1  0
  4 17  1  0
  3 18  1  0
  6  2  1  0
 11  7  1  0
 15 10  1  0
  1 19  1  0
  1 20  1  0
  2 21  1  0
  3 22  1  0
  4 23  1  0
  5 24  1  0
  8 25  1  0
 13 26  1  0
 16 27  1  0
 16 28  1  0
 17 29  1  0
 18 30  1  0
M  RAD  1   1   2
M  END
$$$$

     RDKit          3D

 30 32  0  0  0  0  0  0  0  0999 V2000
  -12.5210   13.9538  -21.7335 C   0  0  0  0  0  3  0  0  0  0  0  0
  -11.9104   13.9953  -23.1078 C   0  0  0  0  0  0  0  0  0  0  0  0
  -12.9032   14.5558  -24.1279 C   0  0  0  0  0  0  0  0  0  0  0  0
  -12.5846   13.7085  -25.3426 C   0  0  0  0  0  0  0  0  0  0  0  0
  -11.3621   12.9676  -24.9085 C   0  0  0  0  0  0  0  0  0  0  0  0
  -11.5969   12.7123  -23.5741 O   0  0  0  0  0  0  0  0  0  0  0  0
  -11.0743   11.8027  -25.6846 N   0  0  0  0  0  0  0  0  0  0  0  0
  -10.6439   11.8299  -26.9552 C   0  0  0  0  0  0  0  0  0  0  0  0
  -10.4776   10.5661  -27.3666 N   0  0  0  0  0  0  0  0  0  0  0  0
  -10.7987    9.7508  -26.3691 C   0  0  0  0  0  0  0  0  0  0  0  0
  -11.1829   10.5041  -25.2834 C   0  0  0  0  0  0  0  0  0  0  0  0
  -11.5704    9.9511  -24.1062 N   0  0  0  0  0  0  0  0  0  0  0  0
  -11.5810    8.6125  -23.9915 C   0  0  0  0  0  0  0  0  0  0  0  0
  -11.2059    7.8752  -25.0513 N   0  0  0  0  0  0  0  0  0  0  0  0
  -10.8163    8.3597  -26.2302 C   0  0  0  0  0  0  0  0  0  0  0  0
  -10.4266    7.5735  -27.3301 N   0  0  0  0  0  0  0  0  0  0  0  0
  -12.2705   14.5352  -26.4088 O   0  0  0  0  0  0  0  0  0  0  0  0
  -14.2006   14.3539  -23.6845 O   0  0  0  0  0  0  0  0  0  0  0  0
  -12.3751   14.9138  -21.2199 H   0  0  0  0  0  0  0  0  0  0  0  0
  -12.2248   13.0772  -21.1431 H   0  0  0  0  0  0  0  0  0  0  0  0
  -11.0286   14.6649  -23.1542 H   0  0  0  0  0  0  0  0  0  0  0  0
  -12.7443   15.6247  -24.2901 H   0  0  0  0  0  0  0  0  0  0  0  0
  -13.4622   13.0663  -25.5310 H   0  0  0  0  0  0  0  0  0  0  0  0
  -10.5061   13.6856  -24.9546 H   0  0  0  0  0  0  0  0  0  0  0  0
  -10.4493   12.7075  -27.5838 H   0  0  0  0  0  0  0  0  0  0  0  0
  -11.8899    8.1272  -23.0502 H   0  0  0  0  0  0  0  0  0  0  0  0
  -10.8993    7.6455  -28.2461 H   0  0  0  0  0  0  0  0  0  0  0  0
   -9.6425    6.9050  -27.2117 H   0  0  0  0  0  0  0  0  0  0  0  0
  -13.0927   14.7950  -26.8947 H   0  0  0  0  0  0  0  0  0  0  0  0
  -14.5100   13.4243  -23.8189 H   0  0  0  0  0  0  0  0  0  0  0  0
  1  2  1  0
  2  3  1  0
  3  4  1  0
  4  5  1  0
  5  6  1  0
  5  7  1  0
  7  8  1  0
  8  9  2  0
  9 10  1  0
 10 11  2  0
 11 12  1  0
 12 13  2  0
 13 14  1  0
 14 15  2  0
 15 16  1  0
  4 17  1  0
  3 18  1  0
  6  2  1  0
 11  7  1  0
 15 10  1  0
  1 19  1  0
  1 20  1  0
  2 21  1  0
  3 22  1  0
  4 23  1  0
  5 24  1  0
  8 25  1  0
 13 26  1  0
 16 27  1  0
 16 28  1  0
 17 29  1  0
 18 30  1  0
M  RAD  1   1   2
M  END
$$$$

     RDKit          3D

 30 32  0  0  0  0  0  0  0  0999 V2000
  -13.5726   14.5734  -22.3577 C   0  0  0  0  0  3  0  0  0  0  0  0
  -13.6258   13.9319  -23.7148 C   0  0  0  0  0  0  0  0  0  0  0  0
  -12.6742   14.5936  -24.6960 C   0  0  0  0  0  0  0  0  0  0  0  0
  -11.4240   13.7677  -24.4634 C   0  0  0  0  0  0  0  0  0  0  0  0
  -11.9880   12.4452  -24.0522 C   0  0  0  0  0  0  0  0  0  0  0  0
  -13.3030   12.6040  -23.7170 O   0  0  0  0  0  0  0  0  0  0  0  0
  -11.8236   11.4518  -25.1231 N   0  0  0  0  0  0  0  0  0  0  0  0
  -12.3830   11.4852  -26.3340 C   0  0  0  0  0  0  0  0  0  0  0  0
  -12.0131   10.4105  -27.0601 N   0  0  0  0  0  0  0  0  0  0  0  0
  -11.1937    9.6744  -26.2834 C   0  0  0  0  0  0  0  0  0  0  0  0
  -11.0836   10.3303  -25.0839 C   0  0  0  0  0  0  0  0  0  0  0  0
  -10.3022    9.7765  -24.1283 N   0  0  0  0  0  0  0  0  0  0  0  0
   -9.6677    8.6175  -24.3811 C   0  0  0  0  0  0  0  0  0  0  0  0
   -9.7773    7.9755  -25.5592 N   0  0  0  0  0  0  0  0  0  0  0  0
  -10.5435    8.4858  -26.5438 C   0  0  0  0  0  0  0  0  0  0  0  0
  -10.6794    7.8292  -27.8023 N   0  0  0  0  0  0  0  0  0  0  0  0
  -10.5951   13.7184  -25.5603 O   0  0  0  0  0  0  0  0  0  0  0  0
  -12.4775   15.9372  -24.3953 O   0  0  0  0  0  0  0  0  0  0  0  0
  -13.4586   15.6547  -22.4012 H   0  0  0  0  0  0  0  0  0  0  0  0
  -12.9543   14.0502  -21.6319 H   0  0  0  0  0  0  0  0  0  0  0  0
  -14.6618   14.0302  -24.1265 H   0  0  0  0  0  0  0  0  0  0  0  0
  -13.0787   14.4905  -25.7020 H   0  0  0  0  0  0  0  0  0  0  0  0
  -10.8944   14.2490  -23.5950 H   0  0  0  0  0  0  0  0  0  0  0  0
  -11.4109   12.0841  -23.1764 H   0  0  0  0  0  0  0  0  0  0  0  0
  -13.0477   12.2453  -26.7277 H   0  0  0  0  0  0  0  0  0  0  0  0
   -9.0429    8.1743  -23.6176 H   0  0  0  0  0  0  0  0  0  0  0  0
  -10.5681    6.7990  -27.9172 H   0  0  0  0  0  0  0  0  0  0  0  0
  -10.8979    8.3918  -28.6427 H   0  0  0  0  0  0  0  0  0  0  0  0
   -9.6611   13.5576  -25.2110 H   0  0  0  0  0  0  0  0  0  0  0  0
  -12.7964   16.5097  -25.1490 H   0  0  0  0  0  0  0  0  0  0  0  0
  1  2  1  0
  2  3  1  0
  3  4  1  0
  4  5  1  0
  5  6  1  0
  5  7  1  0
  7  8  1  0
  8  9  2  0
  9 10  1  0
 10 11  2  0
 11 12  1  0
 12 13  2  0
 13 14  1  0
 14 15  2  0
 15 16  1  0
  4 17  1  0
  3 18  1  0
  6  2  1  0
 11  7  1  0
 15 10  1  0
  1 19  1  0
  1 20  1  0
  2 21  1  0
  3 22  1  0
  4 23  1  0
  5 24  1  0
  8 25  1  0
 13 26  1  0
 16 27  1  0
 16 28  1  0
 17 29  1  0
 18 30  1  0
M  RAD  1   1   2
M  END
$$$$

     RDKit          3D

 30 32  0  0  0  0  0  0  0  0999 V2000
  -12.5610   13.7625  -21.7337 C   0  0  0  0  0  3  0  0  0  0  0  0
  -12.0373   13.9576  -23.1189 C   0  0  0  0  0  0  0  0  0  0  0  0
  -13.1141   14.2416  -24.1294 C   0  0  0  0  0  0  0  0  0  0  0  0
  -12.3981   13.8725  -25.4354 C   0  0  0  0  0  0  0  0  0  0  0  0
  -11.2157   13.0899  -24.9217 C   0  0  0  0  0  0  0  0  0  0  0  0
  -11.4925   12.7760  -23.5860 O   0  0  0  0  0  0  0  0  0  0  0  0
  -10.9889   11.8781  -25.6854 N   0  0  0  0  0  0  0  0  0  0  0  0
  -10.5337   11.8790  -26.9494 C   0  0  0  0  0  0  0  0  0  0  0  0
  -10.4485   10.5904  -27.3280 N   0  0  0  0  0  0  0  0  0  0  0  0
  -10.8422    9.7961  -26.3223 C   0  0  0  0  0  0  0  0  0  0  0  0
  -11.1837   10.6198  -25.2832 C   0  0  0  0  0  0  0  0  0  0  0  0
  -11.6230   10.0604  -24.1250 N   0  0  0  0  0  0  0  0  0  0  0  0
  -11.7123    8.7221  -24.0245 C   0  0  0  0  0  0  0  0  0  0  0  0
  -11.3765    7.9000  -25.0479 N   0  0  0  0  0  0  0  0  0  0  0  0
  -10.9410    8.4074  -26.2012 C   0  0  0  0  0  0  0  0  0  0  0  0
  -10.5726    7.6003  -27.3132 N   0  0  0  0  0  0  0  0  0  0  0  0
  -11.8856   15.0489  -26.0301 O   0  0  0  0  0  0  0  0  0  0  0  0
  -14.2002   13.4056  -24.0207 O   0  0  0  0  0  0  0  0  0  0  0  0
  -11.7043   13.4880  -21.0840 H   0  0  0  0  0  0  0  0  0  0  0  0
  -12.9810   14.6978  -21.3099 H   0  0  0  0  0  0  0  0  0  0  0  0
  -11.2613   14.7391  -23.2089 H   0  0  0  0  0  0  0  0  0  0  0  0
  -13.4198   15.3062  -24.1496 H   0  0  0  0  0  0  0  0  0  0  0  0
  -13.0418   13.3153  -26.1171 H   0  0  0  0  0  0  0  0  0  0  0  0
  -10.2703   13.7019  -24.9225 H   0  0  0  0  0  0  0  0  0  0  0  0
  -10.2858   12.7461  -27.5419 H   0  0  0  0  0  0  0  0  0  0  0  0
  -12.0573    8.2279  -23.1210 H   0  0  0  0  0  0  0  0  0  0  0  0
   -9.9896    7.9878  -28.0798 H   0  0  0  0  0  0  0  0  0  0  0  0
  -10.9153    6.6200  -27.3119 H   0  0  0  0  0  0  0  0  0  0  0  0
  -11.4370   14.7411  -26.8595 H   0  0  0  0  0  0  0  0  0  0  0  0
  -14.2684   13.0223  -23.1075 H   0  0  0  0  0  0  0  0  0  0  0  0
  1  2  1  0
  2  3  1  0
  3  4  1  0
  4  5  1  0
  5  6  1  0
  5  7  1  0
  7  8  1  0
  8  9  2  0
  9 10  1  0
 10 11  2  0
 11 12  1  0
 12 13  2  0
 13 14  1  0
 14 15  2  0
 15 16  1  0
  4 17  1  0
  3 18  1  0
  6  2  1  0
 11  7  1  0
 15 10  1  0
  1 19  1  0
  1 20  1  0
  2 21  1  0
  3 22  1  0
  4 23  1  0
  5 24  1  0
  8 25  1  0
 13 26  1  0
 16 27  1  0
 16 28  1  0
 17 29  1  0
 18 30  1  0
M  RAD  1   1   2
M  END
$$$$

     RDKit          3D

 30 32  0  0  0  0  0  0  0  0999 V2000
  -14.6725   14.7064  -23.5916 C   0  0  0  0  0  3  0  0  0  0  0  0
  -13.3066   14.1010  -23.5347 C   0  0  0  0  0  0  0  0  0  0  0  0
  -12.3474   14.7276  -24.5290 C   0  0  0  0  0  0  0  0  0  0  0  0
  -11.3724   13.5914  -24.7606 C   0  0  0  0  0  0  0  0  0  0  0  0
  -12.0535   12.3651  -24.1824 C   0  0  0  0  0  0  0  0  0  0  0  0
  -13.3347   12.7922  -23.9339 O   0  0  0  0  0  0  0  0  0  0  0  0
  -12.0676   11.2701  -25.1340 N   0  0  0  0  0  0  0  0  0  0  0  0
  -13.0119   10.9737  -26.0481 C   0  0  0  0  0  0  0  0  0  0  0  0
  -12.6120    9.8758  -26.7132 N   0  0  0  0  0  0  0  0  0  0  0  0
  -11.4155    9.4989  -26.2024 C   0  0  0  0  0  0  0  0  0  0  0  0
  -11.0724   10.3700  -25.2136 C   0  0  0  0  0  0  0  0  0  0  0  0
   -9.8993   10.1823  -24.5563 N   0  0  0  0  0  0  0  0  0  0  0  0
   -9.0776    9.1637  -24.8590 C   0  0  0  0  0  0  0  0  0  0  0  0
   -9.4335    8.3158  -25.8366 N   0  0  0  0  0  0  0  0  0  0  0  0
  -10.5682    8.4438  -26.5186 C   0  0  0  0  0  0  0  0  0  0  0  0
  -10.9785    7.5620  -27.5633 N   0  0  0  0  0  0  0  0  0  0  0  0
  -10.1539   13.8565  -24.1675 O   0  0  0  0  0  0  0  0  0  0  0  0
  -11.7494   15.8118  -23.9111 O   0  0  0  0  0  0  0  0  0  0  0  0
  -15.4112   13.8880  -23.5377 H   0  0  0  0  0  0  0  0  0  0  0  0
  -14.7606   15.3003  -24.5179 H   0  0  0  0  0  0  0  0  0  0  0  0
  -12.8280   14.1994  -22.5362 H   0  0  0  0  0  0  0  0  0  0  0  0
  -12.8344   14.9963  -25.4776 H   0  0  0  0  0  0  0  0  0  0  0  0
  -11.1833   13.4511  -25.8544 H   0  0  0  0  0  0  0  0  0  0  0  0
  -11.5105   12.0884  -23.2552 H   0  0  0  0  0  0  0  0  0  0  0  0
  -13.9398   11.5339  -26.2138 H   0  0  0  0  0  0  0  0  0  0  0  0
   -8.1446    9.0624  -24.2948 H   0  0  0  0  0  0  0  0  0  0  0  0
  -10.4254    7.5290  -28.4478 H   0  0  0  0  0  0  0  0  0  0  0  0
  -11.8301    6.9810  -27.3870 H   0  0  0  0  0  0  0  0  0  0  0  0
  -10.2013   14.0729  -23.2174 H   0  0  0  0  0  0  0  0  0  0  0  0
  -12.4298   16.3097  -23.3922 H   0  0  0  0  0  0  0  0  0  0  0  0
  1  2  1  0
  2  3  1  0
  3  4  1  0
  4  5  1  0
  5  6  1  0
  5  7  1  0
  7  8  1  0
  8  9  2  0
  9 10  1  0
 10 11  2  0
 11 12  1  0
 12 13  2  0
 13 14  1  0
 14 15  2  0
 15 16  1  0
  4 17  1  0
  3 18  1  0
  6  2  1  0
 11  7  1  0
 15 10  1  0
  1 19  1  0
  1 20  1  0
  2 21  1  0
  3 22  1  0
  4 23  1  0
  5 24  1  0
  8 25  1  0
 13 26  1  0
 16 27  1  0
 16 28  1  0
 17 29  1  0
 18 30  1  0
M  RAD  1   1   2
M  END
$$$$

     RDKit          3D

 30 32  0  0  0  0  0  0  0  0999 V2000
  -12.8800   13.7839  -21.7448 C   0  0  0  0  0  3  0  0  0  0  0  0
  -12.0733   13.8472  -22.9948 C   0  0  0  0  0  0  0  0  0  0  0  0
  -12.6606   14.7345  -24.0543 C   0  0  0  0  0  0  0  0  0  0  0  0
  -12.2376   13.9495  -25.3058 C   0  0  0  0  0  0  0  0  0  0  0  0
  -12.4373   12.5396  -24.7730 C   0  0  0  0  0  0  0  0  0  0  0  0
  -11.8442   12.6118  -23.5365 O   0  0  0  0  0  0  0  0  0  0  0  0
  -11.8642   11.5376  -25.6175 N   0  0  0  0  0  0  0  0  0  0  0  0
  -11.7010   11.6583  -26.9433 C   0  0  0  0  0  0  0  0  0  0  0  0
  -11.1444   10.5422  -27.3810 N   0  0  0  0  0  0  0  0  0  0  0  0
  -10.9370    9.6876  -26.3719 C   0  0  0  0  0  0  0  0  0  0  0  0
  -11.4004   10.3325  -25.2466 C   0  0  0  0  0  0  0  0  0  0  0  0
  -11.3085    9.6789  -24.0643 N   0  0  0  0  0  0  0  0  0  0  0  0
  -10.7872    8.4443  -23.9682 C   0  0  0  0  0  0  0  0  0  0  0  0
  -10.3373    7.8240  -25.0759 N   0  0  0  0  0  0  0  0  0  0  0  0
  -10.3931    8.4030  -26.2812 C   0  0  0  0  0  0  0  0  0  0  0  0
   -9.9306    7.7805  -27.4601 N   0  0  0  0  0  0  0  0  0  0  0  0
  -13.0287   14.2403  -26.3835 O   0  0  0  0  0  0  0  0  0  0  0  0
  -12.1618   16.0122  -24.0535 O   0  0  0  0  0  0  0  0  0  0  0  0
  -13.4409   14.7321  -21.6136 H   0  0  0  0  0  0  0  0  0  0  0  0
  -12.1716   13.6072  -20.8838 H   0  0  0  0  0  0  0  0  0  0  0  0
  -11.0723   14.2917  -22.7297 H   0  0  0  0  0  0  0  0  0  0  0  0
  -13.7724   14.6801  -24.0237 H   0  0  0  0  0  0  0  0  0  0  0  0
  -11.1529   14.1659  -25.4637 H   0  0  0  0  0  0  0  0  0  0  0  0
  -13.5537   12.4057  -24.7073 H   0  0  0  0  0  0  0  0  0  0  0  0
  -11.9753   12.5244  -27.5723 H   0  0  0  0  0  0  0  0  0  0  0  0
  -10.7345    7.9621  -23.0029 H   0  0  0  0  0  0  0  0  0  0  0  0
   -8.9463    7.9559  -27.7579 H   0  0  0  0  0  0  0  0  0  0  0  0
  -10.4982    7.1514  -28.0666 H   0  0  0  0  0  0  0  0  0  0  0  0
  -12.4873   14.8218  -27.0054 H   0  0  0  0  0  0  0  0  0  0  0  0
  -12.9313   16.6263  -24.2629 H   0  0  0  0  0  0  0  0  0  0  0  0
  1  2  1  0
  2  3  1  0
  3  4  1  0
  4  5  1  0
  5  6  1  0
  5  7  1  0
  7  8  1  0
  8  9  2  0
  9 10  1  0
 10 11  2  0
 11 12  1  0
 12 13  2  0
 13 14  1  0
 14 15  2  0
 15 16  1  0
  4 17  1  0
  3 18  1  0
  6  2  1  0
 11  7  1  0
 15 10  1  0
  1 19  1  0
  1 20  1  0
  2 21  1  0
  3 22  1  0
  4 23  1  0
  5 24  1  0
  8 25  1  0
 13 26  1  0
 16 27  1  0
 16 28  1  0
 17 29  1  0
 18 30  1  0
M  RAD  1   1   2
M  END
$$$$

     RDKit          3D

 30 32  0  0  0  0  0  0  0  0999 V2000
  -14.3184   15.1091  -23.5517 C   0  0  0  0  0  3  0  0  0  0  0  0
  -13.3106   14.5178  -24.4718 C   0  0  0  0  0  0  0  0  0  0  0  0
  -11.8771   14.6787  -23.9470 C   0  0  0  0  0  0  0  0  0  0  0  0
  -11.1853   13.4446  -24.5052 C   0  0  0  0  0  0  0  0  0  0  0  0
  -12.2778   12.8298  -25.2919 C   0  0  0  0  0  0  0  0  0  0  0  0
  -13.4146   13.1078  -24.5322 O   0  0  0  0  0  0  0  0  0  0  0  0
  -12.1420   11.4583  -25.6348 N   0  0  0  0  0  0  0  0  0  0  0  0
  -13.1895   10.7190  -26.0517 C   0  0  0  0  0  0  0  0  0  0  0  0
  -12.7806    9.4889  -26.2996 N   0  0  0  0  0  0  0  0  0  0  0  0
  -11.4664    9.3864  -26.0549 C   0  0  0  0  0  0  0  0  0  0  0  0
  -11.0902   10.6569  -25.6335 C   0  0  0  0  0  0  0  0  0  0  0  0
   -9.8125   10.8465  -25.3174 N   0  0  0  0  0  0  0  0  0  0  0  0
   -8.9051    9.8541  -25.3975 C   0  0  0  0  0  0  0  0  0  0  0  0
   -9.2696    8.6244  -25.8055 N   0  0  0  0  0  0  0  0  0  0  0  0
  -10.5552    8.3564  -26.1445 C   0  0  0  0  0  0  0  0  0  0  0  0
  -10.9752    7.0730  -26.5785 N   0  0  0  0  0  0  0  0  0  0  0  0
  -10.7018   12.7212  -23.4607 O   0  0  0  0  0  0  0  0  0  0  0  0
  -11.8550   14.7352  -22.5776 O   0  0  0  0  0  0  0  0  0  0  0  0
  -14.9670   14.3854  -23.0378 H   0  0  0  0  0  0  0  0  0  0  0  0
  -13.9192   15.8960  -22.8851 H   0  0  0  0  0  0  0  0  0  0  0  0
  -13.3923   14.9280  -25.5048 H   0  0  0  0  0  0  0  0  0  0  0  0
  -11.4798   15.6067  -24.3774 H   0  0  0  0  0  0  0  0  0  0  0  0
  -10.3257   13.8147  -25.1182 H   0  0  0  0  0  0  0  0  0  0  0  0
  -12.3877   13.4222  -26.2280 H   0  0  0  0  0  0  0  0  0  0  0  0
  -14.2356   11.0341  -26.1834 H   0  0  0  0  0  0  0  0  0  0  0  0
   -7.8523   10.0253  -25.1330 H   0  0  0  0  0  0  0  0  0  0  0  0
  -11.0254    6.7740  -27.5755 H   0  0  0  0  0  0  0  0  0  0  0  0
  -11.2561    6.3692  -25.8654 H   0  0  0  0  0  0  0  0  0  0  0  0
  -10.3470   13.2137  -22.7099 H   0  0  0  0  0  0  0  0  0  0  0  0
  -11.3085   15.4995  -22.2887 H   0  0  0  0  0  0  0  0  0  0  0  0
  1  2  1  0
  2  3  1  0
  3  4  1  0
  4  5  1  0
  5  6  1  0
  5  7  1  0
  7  8  1  0
  8  9  2  0
  9 10  1  0
 10 11  2  0
 11 12  1  0
 12 13  2  0
 13 14  1  0
 14 15  2  0
 15 16  1  0
  4 17  1  0
  3 18  1  0
  6  2  1  0
 11  7  1  0
 15 10  1  0
  1 19  1  0
  1 20  1  0
  2 21  1  0
  3 22  1  0
  4 23  1  0
  5 24  1  0
  8 25  1  0
 13 26  1  0
 16 27  1  0
 16 28  1  0
 17 29  1  0
 18 30  1  0
M  RAD  1   1   2
M  END
$$$$

     RDKit          3D

 30 32  0  0  0  0  0  0  0  0999 V2000
  -13.4796   15.3233  -25.0433 C   0  0  0  0  0  3  0  0  0  0  0  0
  -13.5172   14.3031  -23.9177 C   0  0  0  0  0  0  0  0  0  0  0  0
  -12.2481   14.2680  -23.1312 C   0  0  0  0  0  0  0  0  0  0  0  0
  -11.6663   12.9058  -23.5280 C   0  0  0  0  0  0  0  0  0  0  0  0
  -12.3996   12.6858  -24.8241 C   0  0  0  0  0  0  0  0  0  0  0  0
  -13.7007   13.0344  -24.4659 O   0  0  0  0  0  0  0  0  0  0  0  0
  -12.3006   11.3575  -25.3334 N   0  0  0  0  0  0  0  0  0  0  0  0
  -13.3182   10.5548  -25.7077 C   0  0  0  0  0  0  0  0  0  0  0  0
  -12.8191    9.3785  -26.1333 N   0  0  0  0  0  0  0  0  0  0  0  0
  -11.4767    9.4040  -26.0403 C   0  0  0  0  0  0  0  0  0  0  0  0
  -11.1829   10.6622  -25.5340 C   0  0  0  0  0  0  0  0  0  0  0  0
   -9.8680   10.9307  -25.3485 N   0  0  0  0  0  0  0  0  0  0  0  0
   -8.8967   10.0445  -25.6323 C   0  0  0  0  0  0  0  0  0  0  0  0
   -9.2253    8.8332  -26.1226 N   0  0  0  0  0  0  0  0  0  0  0  0
  -10.5031    8.4730  -26.3413 C   0  0  0  0  0  0  0  0  0  0  0  0
  -10.8233    7.1839  -26.8613 N   0  0  0  0  0  0  0  0  0  0  0  0
  -10.2877   12.9906  -23.6909 O   0  0  0  0  0  0  0  0  0  0  0  0
  -11.4140   15.2748  -23.6002 O   0  0  0  0  0  0  0  0  0  0  0  0
  -13.8093   14.8421  -26.0034 H   0  0  0  0  0  0  0  0  0  0  0  0
  -14.2692   16.0912  -24.8311 H   0  0  0  0  0  0  0  0  0  0  0  0
  -14.3438   14.5450  -23.1920 H   0  0  0  0  0  0  0  0  0  0  0  0
  -12.3556   14.3735  -22.0572 H   0  0  0  0  0  0  0  0  0  0  0  0
  -11.9645   12.1843  -22.7504 H   0  0  0  0  0  0  0  0  0  0  0  0
  -12.0544   13.4702  -25.5423 H   0  0  0  0  0  0  0  0  0  0  0  0
  -14.3556   10.8735  -25.6482 H   0  0  0  0  0  0  0  0  0  0  0  0
   -7.8381   10.3006  -25.4674 H   0  0  0  0  0  0  0  0  0  0  0  0
  -11.1824    6.4242  -26.2210 H   0  0  0  0  0  0  0  0  0  0  0  0
  -10.6836    7.0441  -27.8871 H   0  0  0  0  0  0  0  0  0  0  0  0
   -9.8601   13.5232  -23.0013 H   0  0  0  0  0  0  0  0  0  0  0  0
  -10.8092   14.9523  -24.3342 H   0  0  0  0  0  0  0  0  0  0  0  0
  1  2  1  0
  2  3  1  0
  3  4  1  0
  4  5  1  0
  5  6  1  0
  5  7  1  0
  7  8  1  0
  8  9  2  0
  9 10  1  0
 10 11  2  0
 11 12  1  0
 12 13  2  0
 13 14  1  0
 14 15  2  0
 15 16  1  0
  4 17  1  0
  3 18  1  0
  6  2  1  0
 11  7  1  0
 15 10  1  0
  1 19  1  0
  1 20  1  0
  2 21  1  0
  3 22  1  0
  4 23  1  0
  5 24  1  0
  8 25  1  0
 13 26  1  0
 16 27  1  0
 16 28  1  0
 17 29  1  0
 18 30  1  0
M  RAD  1   1   2
M  END
$$$$

     RDKit          3D

 30 32  0  0  0  0  0  0  0  0999 V2000
  -13.6747   13.9451  -22.0758 C   0  0  0  0  0  3  0  0  0  0  0  0
  -13.3248   14.0320  -23.5433 C   0  0  0  0  0  0  0  0  0  0  0  0
  -11.9974   14.7316  -23.7422 C   0  0  0  0  0  0  0  0  0  0  0  0
  -11.3931   13.8492  -24.8274 C   0  0  0  0  0  0  0  0  0  0  0  0
  -11.9224   12.5003  -24.3730 C   0  0  0  0  0  0  0  0  0  0  0  0
  -13.2433   12.7912  -24.0994 O   0  0  0  0  0  0  0  0  0  0  0  0
  -11.7561   11.4736  -25.3604 N   0  0  0  0  0  0  0  0  0  0  0  0
  -12.2363   11.5267  -26.6184 C   0  0  0  0  0  0  0  0  0  0  0  0
  -11.8652   10.3768  -27.2109 N   0  0  0  0  0  0  0  0  0  0  0  0
  -11.1655    9.6101  -26.3508 C   0  0  0  0  0  0  0  0  0  0  0  0
  -11.0928   10.3114  -25.1593 C   0  0  0  0  0  0  0  0  0  0  0  0
  -10.4371    9.7714  -24.1014 N   0  0  0  0  0  0  0  0  0  0  0  0
   -9.8519    8.5597  -24.1871 C   0  0  0  0  0  0  0  0  0  0  0  0
   -9.9123    7.8542  -25.3503 N   0  0  0  0  0  0  0  0  0  0  0  0
  -10.5578    8.3732  -26.4097 C   0  0  0  0  0  0  0  0  0  0  0  0
  -10.6196    7.6341  -27.6242 N   0  0  0  0  0  0  0  0  0  0  0  0
  -11.9062   14.2264  -26.0489 O   0  0  0  0  0  0  0  0  0  0  0  0
  -12.1705   16.0410  -24.1733 O   0  0  0  0  0  0  0  0  0  0  0  0
  -13.1374   13.0666  -21.6632 H   0  0  0  0  0  0  0  0  0  0  0  0
  -14.7581   13.8729  -21.9351 H   0  0  0  0  0  0  0  0  0  0  0  0
  -14.1059   14.6831  -24.0184 H   0  0  0  0  0  0  0  0  0  0  0  0
  -11.3544   14.6767  -22.8419 H   0  0  0  0  0  0  0  0  0  0  0  0
  -10.2891   13.8807  -24.8199 H   0  0  0  0  0  0  0  0  0  0  0  0
  -11.3956   12.2521  -23.4391 H   0  0  0  0  0  0  0  0  0  0  0  0
  -12.8160   12.3378  -27.0828 H   0  0  0  0  0  0  0  0  0  0  0  0
   -9.3242    8.0955  -23.3776 H   0  0  0  0  0  0  0  0  0  0  0  0
   -9.9619    6.8446  -27.8344 H   0  0  0  0  0  0  0  0  0  0  0  0
  -11.3238    7.8418  -28.3669 H   0  0  0  0  0  0  0  0  0  0  0  0
  -12.8658   14.4821  -25.9140 H   0  0  0  0  0  0  0  0  0  0  0  0
  -11.9728   16.1452  -25.1407 H   0  0  0  0  0  0  0  0  0  0  0  0
  1  2  1  0
  2  3  1  0
  3  4  1  0
  4  5  1  0
  5  6  1  0
  5  7  1  0
  7  8  1  0
  8  9  2  0
  9 10  1  0
 10 11  2  0
 11 12  1  0
 12 13  2  0
 13 14  1  0
 14 15  2  0
 15 16  1  0
  4 17  1  0
  3 18  1  0
  6  2  1  0
 11  7  1  0
 15 10  1  0
  1 19  1  0
  1 20  1  0
  2 21  1  0
  3 22  1  0
  4 23  1  0
  5 24  1  0
  8 25  1  0
 13 26  1  0
 16 27  1  0
 16 28  1  0
 17 29  1  0
 18 30  1  0
M  RAD  1   1   2
M  END
$$$$

     RDKit          3D

 30 32  0  0  0  0  0  0  0  0999 V2000
  -11.6495   13.5736  -21.8355 C   0  0  0  0  0  3  0  0  0  0  0  0
  -12.5809   13.5684  -23.0279 C   0  0  0  0  0  0  0  0  0  0  0  0
  -11.9186   14.3951  -24.1103 C   0  0  0  0  0  0  0  0  0  0  0  0
  -12.6512   13.9035  -25.3415 C   0  0  0  0  0  0  0  0  0  0  0  0
  -13.0024   12.4871  -24.9407 C   0  0  0  0  0  0  0  0  0  0  0  0
  -12.6858   12.3313  -23.6172 O   0  0  0  0  0  0  0  0  0  0  0  0
  -12.2761   11.5184  -25.7557 N   0  0  0  0  0  0  0  0  0  0  0  0
  -12.1777   11.5249  -27.0891 C   0  0  0  0  0  0  0  0  0  0  0  0
  -11.4329   10.4782  -27.4531 N   0  0  0  0  0  0  0  0  0  0  0  0
  -11.0592    9.8082  -26.3487 C   0  0  0  0  0  0  0  0  0  0  0  0
  -11.5946   10.4683  -25.2676 C   0  0  0  0  0  0  0  0  0  0  0  0
  -11.3743   10.0042  -24.0020 N   0  0  0  0  0  0  0  0  0  0  0  0
  -10.6305    8.8988  -23.8309 C   0  0  0  0  0  0  0  0  0  0  0  0
  -10.1015    8.2444  -24.8798 N   0  0  0  0  0  0  0  0  0  0  0  0
  -10.2925    8.6643  -26.1320 C   0  0  0  0  0  0  0  0  0  0  0  0
   -9.7588    8.0127  -27.2669 N   0  0  0  0  0  0  0  0  0  0  0  0
  -11.8394   13.9681  -26.4503 O   0  0  0  0  0  0  0  0  0  0  0  0
  -12.1012   15.7586  -23.9067 O   0  0  0  0  0  0  0  0  0  0  0  0
  -11.0148   12.6641  -21.7995 H   0  0  0  0  0  0  0  0  0  0  0  0
  -12.1460   13.7989  -20.8898 H   0  0  0  0  0  0  0  0  0  0  0  0
  -13.5475   14.0326  -22.7647 H   0  0  0  0  0  0  0  0  0  0  0  0
  -10.8527   14.1156  -24.2440 H   0  0  0  0  0  0  0  0  0  0  0  0
  -13.6078   14.4521  -25.4643 H   0  0  0  0  0  0  0  0  0  0  0  0
  -14.0998   12.2849  -25.0510 H   0  0  0  0  0  0  0  0  0  0  0  0
  -12.5999   12.2223  -27.8089 H   0  0  0  0  0  0  0  0  0  0  0  0
  -10.4373    8.5033  -22.8232 H   0  0  0  0  0  0  0  0  0  0  0  0
  -10.4045    7.5133  -27.9092 H   0  0  0  0  0  0  0  0  0  0  0  0
   -8.7471    8.0084  -27.4923 H   0  0  0  0  0  0  0  0  0  0  0  0
  -12.2719   14.5729  -27.1158 H   0  0  0  0  0  0  0  0  0  0  0  0
  -11.3880   16.3090  -24.2897 H   0  0  0  0  0  0  0  0  0  0  0  0
  1  2  1  0
  2  3  1  0
  3  4  1  0
  4  5  1  0
  5  6  1  0
  5  7  1  0
  7  8  1  0
  8  9  2  0
  9 10  1  0
 10 11  2  0
 11 12  1  0
 12 13  2  0
 13 14  1  0
 14 15  2  0
 15 16  1  0
  4 17  1  0
  3 18  1  0
  6  2  1  0
 11  7  1  0
 15 10  1  0
  1 19  1  0
  1 20  1  0
  2 21  1  0
  3 22  1  0
  4 23  1  0
  5 24  1  0
  8 25  1  0
 13 26  1  0
 16 27  1  0
 16 28  1  0
 17 29  1  0
 18 30  1  0
M  RAD  1   1   2
M  END
$$$$

     RDKit          3D

 30 32  0  0  0  0  0  0  0  0999 V2000
  -14.1090   14.3953  -22.4731 C   0  0  0  0  0  3  0  0  0  0  0  0
  -12.8487   13.7833  -22.9859 C   0  0  0  0  0  0  0  0  0  0  0  0
  -12.0141   14.7829  -23.7496 C   0  0  0  0  0  0  0  0  0  0  0  0
  -11.2999   13.8906  -24.7740 C   0  0  0  0  0  0  0  0  0  0  0  0
  -11.7590   12.5311  -24.3510 C   0  0  0  0  0  0  0  0  0  0  0  0
  -13.0791   12.7850  -23.9448 O   0  0  0  0  0  0  0  0  0  0  0  0
  -11.6646   11.5291  -25.3603 N   0  0  0  0  0  0  0  0  0  0  0  0
  -12.1063   11.5327  -26.6119 C   0  0  0  0  0  0  0  0  0  0  0  0
  -11.8155   10.3834  -27.2507 N   0  0  0  0  0  0  0  0  0  0  0  0
  -11.1650    9.6181  -26.3765 C   0  0  0  0  0  0  0  0  0  0  0  0
  -11.0607   10.3156  -25.1904 C   0  0  0  0  0  0  0  0  0  0  0  0
  -10.4380    9.7554  -24.1338 N   0  0  0  0  0  0  0  0  0  0  0  0
   -9.9079    8.5222  -24.1989 C   0  0  0  0  0  0  0  0  0  0  0  0
  -10.0152    7.8561  -25.3536 N   0  0  0  0  0  0  0  0  0  0  0  0
  -10.6185    8.3398  -26.4526 C   0  0  0  0  0  0  0  0  0  0  0  0
  -10.7186    7.6160  -27.6602 N   0  0  0  0  0  0  0  0  0  0  0  0
  -11.6808   14.2590  -26.0369 O   0  0  0  0  0  0  0  0  0  0  0  0
  -12.8264   15.7124  -24.3519 O   0  0  0  0  0  0  0  0  0  0  0  0
  -13.8505   15.3636  -21.9857 H   0  0  0  0  0  0  0  0  0  0  0  0
  -14.5661   13.7614  -21.6896 H   0  0  0  0  0  0  0  0  0  0  0  0
  -12.2316   13.3111  -22.1936 H   0  0  0  0  0  0  0  0  0  0  0  0
  -11.2876   15.2193  -23.0396 H   0  0  0  0  0  0  0  0  0  0  0  0
  -10.2111   14.0385  -24.6616 H   0  0  0  0  0  0  0  0  0  0  0  0
  -11.2063   12.2498  -23.4420 H   0  0  0  0  0  0  0  0  0  0  0  0
  -12.6442   12.3868  -27.0525 H   0  0  0  0  0  0  0  0  0  0  0  0
   -9.4042    8.0876  -23.3208 H   0  0  0  0  0  0  0  0  0  0  0  0
  -10.6482    8.0536  -28.6019 H   0  0  0  0  0  0  0  0  0  0  0  0
  -10.8713    6.5874  -27.6180 H   0  0  0  0  0  0  0  0  0  0  0  0
  -12.6436   14.5528  -26.0027 H   0  0  0  0  0  0  0  0  0  0  0  0
  -12.3117   16.2878  -24.9806 H   0  0  0  0  0  0  0  0  0  0  0  0
  1  2  1  0
  2  3  1  0
  3  4  1  0
  4  5  1  0
  5  6  1  0
  5  7  1  0
  7  8  1  0
  8  9  2  0
  9 10  1  0
 10 11  2  0
 11 12  1  0
 12 13  2  0
 13 14  1  0
 14 15  2  0
 15 16  1  0
  4 17  1  0
  3 18  1  0
  6  2  1  0
 11  7  1  0
 15 10  1  0
  1 19  1  0
  1 20  1  0
  2 21  1  0
  3 22  1  0
  4 23  1  0
  5 24  1  0
  8 25  1  0
 13 26  1  0
 16 27  1  0
 16 28  1  0
 17 29  1  0
 18 30  1  0
M  RAD  1   1   2
M  END
$$$$

     RDKit          3D

 30 32  0  0  0  0  0  0  0  0999 V2000
  -12.2743   14.0285  -21.8380 C   0  0  0  0  0  3  0  0  0  0  0  0
  -11.7039   14.2246  -23.2283 C   0  0  0  0  0  0  0  0  0  0  0  0
  -12.8192   14.6090  -24.1380 C   0  0  0  0  0  0  0  0  0  0  0  0
  -12.9078   13.3799  -25.0463 C   0  0  0  0  0  0  0  0  0  0  0  0
  -11.4236   13.0165  -25.0146 C   0  0  0  0  0  0  0  0  0  0  0  0
  -11.1913   13.0051  -23.6638 O   0  0  0  0  0  0  0  0  0  0  0  0
  -11.1496   11.7922  -25.6946 N   0  0  0  0  0  0  0  0  0  0  0  0
  -10.8013   11.7698  -27.0074 C   0  0  0  0  0  0  0  0  0  0  0  0
  -10.5980   10.5234  -27.4129 N   0  0  0  0  0  0  0  0  0  0  0  0
  -10.8121    9.7331  -26.3709 C   0  0  0  0  0  0  0  0  0  0  0  0
  -11.1558   10.5261  -25.3007 C   0  0  0  0  0  0  0  0  0  0  0  0
  -11.4294    9.9901  -24.1073 N   0  0  0  0  0  0  0  0  0  0  0  0
  -11.3568    8.6515  -23.9906 C   0  0  0  0  0  0  0  0  0  0  0  0
  -11.0212    7.8452  -25.0260 N   0  0  0  0  0  0  0  0  0  0  0  0
  -10.7410    8.3614  -26.2386 C   0  0  0  0  0  0  0  0  0  0  0  0
  -10.3846    7.5660  -27.3560 N   0  0  0  0  0  0  0  0  0  0  0  0
  -13.3505   13.6906  -26.3022 O   0  0  0  0  0  0  0  0  0  0  0  0
  -14.0064   14.8951  -23.5199 O   0  0  0  0  0  0  0  0  0  0  0  0
  -12.0464   14.9227  -21.2144 H   0  0  0  0  0  0  0  0  0  0  0  0
  -13.3688   13.8448  -21.9083 H   0  0  0  0  0  0  0  0  0  0  0  0
  -10.8967   15.0094  -23.2235 H   0  0  0  0  0  0  0  0  0  0  0  0
  -12.4773   15.4563  -24.8012 H   0  0  0  0  0  0  0  0  0  0  0  0
  -13.5204   12.6133  -24.5210 H   0  0  0  0  0  0  0  0  0  0  0  0
  -10.8904   13.8843  -25.4549 H   0  0  0  0  0  0  0  0  0  0  0  0
  -10.6904   12.6309  -27.6797 H   0  0  0  0  0  0  0  0  0  0  0  0
  -11.5641    8.1329  -23.0536 H   0  0  0  0  0  0  0  0  0  0  0  0
  -10.5690    6.5399  -27.3245 H   0  0  0  0  0  0  0  0  0  0  0  0
   -9.9539    7.9876  -28.1806 H   0  0  0  0  0  0  0  0  0  0  0  0
  -14.1704   13.1480  -26.4811 H   0  0  0  0  0  0  0  0  0  0  0  0
  -14.3518   15.7422  -23.9040 H   0  0  0  0  0  0  0  0  0  0  0  0
  1  2  1  0
  2  3  1  0
  3  4  1  0
  4  5  1  0
  5  6  1  0
  5  7  1  0
  7  8  1  0
  8  9  2  0
  9 10  1  0
 10 11  2  0
 11 12  1  0
 12 13  2  0
 13 14  1  0
 14 15  2  0
 15 16  1  0
  4 17  1  0
  3 18  1  0
  6  2  1  0
 11  7  1  0
 15 10  1  0
  1 19  1  0
  1 20  1  0
  2 21  1  0
  3 22  1  0
  4 23  1  0
  5 24  1  0
  8 25  1  0
 13 26  1  0
 16 27  1  0
 16 28  1  0
 17 29  1  0
 18 30  1  0
M  RAD  1   1   2
M  END
$$$$

     RDKit          3D

 30 32  0  0  0  0  0  0  0  0999 V2000
  -14.1290   13.8261  -22.7322 C   0  0  0  0  0  3  0  0  0  0  0  0
  -12.6412   13.7712  -22.9463 C   0  0  0  0  0  0  0  0  0  0  0  0
  -12.2874   14.7563  -24.0411 C   0  0  0  0  0  0  0  0  0  0  0  0
  -12.2464   13.8791  -25.2970 C   0  0  0  0  0  0  0  0  0  0  0  0
  -12.7616   12.5681  -24.7419 C   0  0  0  0  0  0  0  0  0  0  0  0
  -12.2201   12.5475  -23.4780 O   0  0  0  0  0  0  0  0  0  0  0  0
  -12.2924   11.4783  -25.5661 N   0  0  0  0  0  0  0  0  0  0  0  0
  -12.6707   11.2612  -26.8329 C   0  0  0  0  0  0  0  0  0  0  0  0
  -12.0447   10.1565  -27.3173 N   0  0  0  0  0  0  0  0  0  0  0  0
  -11.2563    9.6489  -26.3696 C   0  0  0  0  0  0  0  0  0  0  0  0
  -11.4232   10.4957  -25.2670 C   0  0  0  0  0  0  0  0  0  0  0  0
  -10.7506   10.2395  -24.1469 N   0  0  0  0  0  0  0  0  0  0  0  0
   -9.9208    9.1905  -24.0567 C   0  0  0  0  0  0  0  0  0  0  0  0
   -9.7741    8.3894  -25.1259 N   0  0  0  0  0  0  0  0  0  0  0  0
  -10.4050    8.5630  -26.2944 C   0  0  0  0  0  0  0  0  0  0  0  0
  -10.2631    7.7308  -27.4295 N   0  0  0  0  0  0  0  0  0  0  0  0
  -10.9723   13.7526  -25.8011 O   0  0  0  0  0  0  0  0  0  0  0  0
  -11.0681   15.3535  -23.8122 O   0  0  0  0  0  0  0  0  0  0  0  0
  -14.6223   14.6656  -23.2292 H   0  0  0  0  0  0  0  0  0  0  0  0
  -14.4247   13.8450  -21.6704 H   0  0  0  0  0  0  0  0  0  0  0  0
  -12.1093   14.0038  -21.9945 H   0  0  0  0  0  0  0  0  0  0  0  0
  -13.1202   15.4715  -24.1939 H   0  0  0  0  0  0  0  0  0  0  0  0
  -12.9296   14.2336  -26.0711 H   0  0  0  0  0  0  0  0  0  0  0  0
  -13.8474   12.6228  -24.6613 H   0  0  0  0  0  0  0  0  0  0  0  0
  -13.3770   11.8983  -27.3604 H   0  0  0  0  0  0  0  0  0  0  0  0
   -9.3654    8.9845  -23.1217 H   0  0  0  0  0  0  0  0  0  0  0  0
   -9.5381    7.8993  -28.1733 H   0  0  0  0  0  0  0  0  0  0  0  0
  -10.9306    6.9166  -27.4980 H   0  0  0  0  0  0  0  0  0  0  0  0
  -10.5284   14.6519  -25.6968 H   0  0  0  0  0  0  0  0  0  0  0  0
  -11.1952   16.3431  -23.9034 H   0  0  0  0  0  0  0  0  0  0  0  0
  1  2  1  0
  2  3  1  0
  3  4  1  0
  4  5  1  0
  5  6  1  0
  5  7  1  0
  7  8  1  0
  8  9  2  0
  9 10  1  0
 10 11  2  0
 11 12  1  0
 12 13  2  0
 13 14  1  0
 14 15  2  0
 15 16  1  0
  4 17  1  0
  3 18  1  0
  6  2  1  0
 11  7  1  0
 15 10  1  0
  1 19  1  0
  1 20  1  0
  2 21  1  0
  3 22  1  0
  4 23  1  0
  5 24  1  0
  8 25  1  0
 13 26  1  0
 16 27  1  0
 16 28  1  0
 17 29  1  0
 18 30  1  0
M  RAD  1   1   2
M  END
$$$$

     RDKit          3D

 30 32  0  0  0  0  0  0  0  0999 V2000
  -13.6998   15.1787  -25.3263 C   0  0  0  0  0  3  0  0  0  0  0  0
  -12.3518   14.7091  -24.7688 C   0  0  0  0  0  0  0  0  0  0  0  0
  -12.4563   14.3440  -23.3237 C   0  0  0  0  0  0  0  0  0  0  0  0
  -12.2661   12.8208  -23.3660 C   0  0  0  0  0  0  0  0  0  0  0  0
  -12.7376   12.5759  -24.8007 C   0  0  0  0  0  0  0  0  0  0  0  0
  -12.0322   13.5453  -25.4742 O   0  0  0  0  0  0  0  0  0  0  0  0
  -12.4758   11.2371  -25.2326 N   0  0  0  0  0  0  0  0  0  0  0  0
  -13.4328   10.3058  -25.4093 C   0  0  0  0  0  0  0  0  0  0  0  0
  -12.8561    9.1438  -25.8221 N   0  0  0  0  0  0  0  0  0  0  0  0
  -11.5311    9.3487  -25.9041 C   0  0  0  0  0  0  0  0  0  0  0  0
  -11.3090   10.6639  -25.5319 C   0  0  0  0  0  0  0  0  0  0  0  0
  -10.0485   11.1339  -25.5271 N   0  0  0  0  0  0  0  0  0  0  0  0
   -9.0346   10.3067  -25.8864 C   0  0  0  0  0  0  0  0  0  0  0  0
   -9.2162    9.0355  -26.2498 N   0  0  0  0  0  0  0  0  0  0  0  0
  -10.4740    8.5398  -26.2626 C   0  0  0  0  0  0  0  0  0  0  0  0
  -10.7607    7.2080  -26.6328 N   0  0  0  0  0  0  0  0  0  0  0  0
  -10.9182   12.5674  -23.2265 O   0  0  0  0  0  0  0  0  0  0  0  0
  -11.5262   14.9436  -22.5109 O   0  0  0  0  0  0  0  0  0  0  0  0
  -13.7188   16.2519  -25.5197 H   0  0  0  0  0  0  0  0  0  0  0  0
  -14.5231   14.8889  -24.6421 H   0  0  0  0  0  0  0  0  0  0  0  0
  -11.6212   15.5188  -24.9514 H   0  0  0  0  0  0  0  0  0  0  0  0
  -13.5103   14.4855  -22.9537 H   0  0  0  0  0  0  0  0  0  0  0  0
  -12.8866   12.3102  -22.6326 H   0  0  0  0  0  0  0  0  0  0  0  0
  -13.7988   12.8246  -24.8250 H   0  0  0  0  0  0  0  0  0  0  0  0
  -14.5048   10.3709  -25.2734 H   0  0  0  0  0  0  0  0  0  0  0  0
   -8.0274   10.7053  -25.8756 H   0  0  0  0  0  0  0  0  0  0  0  0
  -10.8046    6.9587  -27.6323 H   0  0  0  0  0  0  0  0  0  0  0  0
  -10.9215    6.5065  -25.8932 H   0  0  0  0  0  0  0  0  0  0  0  0
  -10.3478   13.3447  -23.4927 H   0  0  0  0  0  0  0  0  0  0  0  0
  -11.8712   15.7074  -21.9906 H   0  0  0  0  0  0  0  0  0  0  0  0
  1  2  1  0
  2  3  1  0
  3  4  1  0
  4  5  1  0
  5  6  1  0
  5  7  1  0
  7  8  1  0
  8  9  2  0
  9 10  1  0
 10 11  2  0
 11 12  1  0
 12 13  2  0
 13 14  1  0
 14 15  2  0
 15 16  1  0
  4 17  1  0
  3 18  1  0
  6  2  1  0
 11  7  1  0
 15 10  1  0
  1 19  1  0
  1 20  1  0
  2 21  1  0
  3 22  1  0
  4 23  1  0
  5 24  1  0
  8 25  1  0
 13 26  1  0
 16 27  1  0
 16 28  1  0
 17 29  1  0
 18 30  1  0
M  RAD  1   1   2
M  END
$$$$

     RDKit          3D

 30 32  0  0  0  0  0  0  0  0999 V2000
  -14.1424   13.9721  -22.7045 C   0  0  0  0  0  3  0  0  0  0  0  0
  -12.6631   13.8014  -23.0155 C   0  0  0  0  0  0  0  0  0  0  0  0
  -12.2861   14.8786  -24.0082 C   0  0  0  0  0  0  0  0  0  0  0  0
  -12.1560   14.0352  -25.2865 C   0  0  0  0  0  0  0  0  0  0  0  0
  -11.5868   12.7740  -24.6738 C   0  0  0  0  0  0  0  0  0  0  0  0
  -12.3958   12.5869  -23.5780 O   0  0  0  0  0  0  0  0  0  0  0  0
  -11.5697   11.6682  -25.5804 N   0  0  0  0  0  0  0  0  0  0  0  0
  -12.0738   11.5928  -26.8218 C   0  0  0  0  0  0  0  0  0  0  0  0
  -11.8173   10.3611  -27.2774 N   0  0  0  0  0  0  0  0  0  0  0  0
  -11.1570    9.6318  -26.3605 C   0  0  0  0  0  0  0  0  0  0  0  0
  -11.0100   10.4826  -25.2889 C   0  0  0  0  0  0  0  0  0  0  0  0
  -10.3603    9.9919  -24.1924 N   0  0  0  0  0  0  0  0  0  0  0  0
   -9.8778    8.7577  -24.1227 C   0  0  0  0  0  0  0  0  0  0  0  0
  -10.0298    7.9242  -25.1911 N   0  0  0  0  0  0  0  0  0  0  0  0
  -10.6605    8.3468  -26.3014 C   0  0  0  0  0  0  0  0  0  0  0  0
  -10.8130    7.4728  -27.4057 N   0  0  0  0  0  0  0  0  0  0  0  0
  -13.4538   13.8426  -25.7526 O   0  0  0  0  0  0  0  0  0  0  0  0
  -11.0740   15.4875  -23.6944 O   0  0  0  0  0  0  0  0  0  0  0  0
  -14.5774   14.8544  -23.2179 H   0  0  0  0  0  0  0  0  0  0  0  0
  -14.7344   13.0801  -23.0553 H   0  0  0  0  0  0  0  0  0  0  0  0
  -12.0392   13.9237  -22.0953 H   0  0  0  0  0  0  0  0  0  0  0  0
  -13.1011   15.6391  -24.1314 H   0  0  0  0  0  0  0  0  0  0  0  0
  -11.4910   14.5001  -26.0154 H   0  0  0  0  0  0  0  0  0  0  0  0
  -10.5604   13.0488  -24.3077 H   0  0  0  0  0  0  0  0  0  0  0  0
  -12.6025   12.3901  -27.3735 H   0  0  0  0  0  0  0  0  0  0  0  0
   -9.3699    8.3895  -23.2523 H   0  0  0  0  0  0  0  0  0  0  0  0
  -11.1557    7.8399  -28.3276 H   0  0  0  0  0  0  0  0  0  0  0  0
  -10.5924    6.4707  -27.3247 H   0  0  0  0  0  0  0  0  0  0  0  0
  -13.8999   13.0627  -25.3589 H   0  0  0  0  0  0  0  0  0  0  0  0
  -10.5187   14.9273  -23.0923 H   0  0  0  0  0  0  0  0  0  0  0  0
  1  2  1  0
  2  3  1  0
  3  4  1  0
  4  5  1  0
  5  6  1  0
  5  7  1  0
  7  8  1  0
  8  9  2  0
  9 10  1  0
 10 11  2  0
 11 12  1  0
 12 13  2  0
 13 14  1  0
 14 15  2  0
 15 16  1  0
  4 17  1  0
  3 18  1  0
  6  2  1  0
 11  7  1  0
 15 10  1  0
  1 19  1  0
  1 20  1  0
  2 21  1  0
  3 22  1  0
  4 23  1  0
  5 24  1  0
  8 25  1  0
 13 26  1  0
 16 27  1  0
 16 28  1  0
 17 29  1  0
 18 30  1  0
M  RAD  1   1   2
M  END
$$$$

     RDKit          3D

 30 32  0  0  0  0  0  0  0  0999 V2000
  -13.4448   15.5881  -25.6484 C   0  0  0  0  0  3  0  0  0  0  0  0
  -13.2044   14.2783  -24.9828 C   0  0  0  0  0  0  0  0  0  0  0  0
  -12.8730   14.4499  -23.4956 C   0  0  0  0  0  0  0  0  0  0  0  0
  -12.4779   12.9923  -23.2126 C   0  0  0  0  0  0  0  0  0  0  0  0
  -11.6943   12.7051  -24.4823 C   0  0  0  0  0  0  0  0  0  0  0  0
  -12.0766   13.6213  -25.4238 O   0  0  0  0  0  0  0  0  0  0  0  0
  -11.8626   11.3611  -24.9485 N   0  0  0  0  0  0  0  0  0  0  0  0
  -13.0048   10.6427  -24.9237 C   0  0  0  0  0  0  0  0  0  0  0  0
  -12.7568    9.4093  -25.4564 N   0  0  0  0  0  0  0  0  0  0  0  0
  -11.4728    9.3420  -25.8164 C   0  0  0  0  0  0  0  0  0  0  0  0
  -10.9156   10.5754  -25.4933 C   0  0  0  0  0  0  0  0  0  0  0  0
   -9.6099   10.7388  -25.7714 N   0  0  0  0  0  0  0  0  0  0  0  0
   -8.8559    9.7698  -26.3356 C   0  0  0  0  0  0  0  0  0  0  0  0
   -9.4292    8.5752  -26.6397 N   0  0  0  0  0  0  0  0  0  0  0  0
  -10.7275    8.3379  -26.3916 C   0  0  0  0  0  0  0  0  0  0  0  0
  -11.2519    7.0692  -26.7365 N   0  0  0  0  0  0  0  0  0  0  0  0
  -11.7066   12.8922  -22.0767 O   0  0  0  0  0  0  0  0  0  0  0  0
  -11.7624   15.2596  -23.4208 O   0  0  0  0  0  0  0  0  0  0  0  0
  -14.0160   15.4038  -26.5807 H   0  0  0  0  0  0  0  0  0  0  0  0
  -12.5317   16.1798  -25.8245 H   0  0  0  0  0  0  0  0  0  0  0  0
  -14.0695   13.6131  -25.1322 H   0  0  0  0  0  0  0  0  0  0  0  0
  -13.7272   14.7700  -22.9128 H   0  0  0  0  0  0  0  0  0  0  0  0
  -13.4141   12.4150  -23.1494 H   0  0  0  0  0  0  0  0  0  0  0  0
  -10.6149   12.8959  -24.2083 H   0  0  0  0  0  0  0  0  0  0  0  0
  -13.9420   11.0167  -24.5376 H   0  0  0  0  0  0  0  0  0  0  0  0
   -7.8149    9.9876  -26.5240 H   0  0  0  0  0  0  0  0  0  0  0  0
  -12.0689    6.9732  -27.3906 H   0  0  0  0  0  0  0  0  0  0  0  0
  -10.8552    6.1807  -26.3610 H   0  0  0  0  0  0  0  0  0  0  0  0
  -12.2355   12.3629  -21.4089 H   0  0  0  0  0  0  0  0  0  0  0  0
  -11.3137   15.1210  -22.5382 H   0  0  0  0  0  0  0  0  0  0  0  0
  1  2  1  0
  2  3  1  0
  3  4  1  0
  4  5  1  0
  5  6  1  0
  5  7  1  0
  7  8  1  0
  8  9  2  0
  9 10  1  0
 10 11  2  0
 11 12  1  0
 12 13  2  0
 13 14  1  0
 14 15  2  0
 15 16  1  0
  4 17  1  0
  3 18  1  0
  6  2  1  0
 11  7  1  0
 15 10  1  0
  1 19  1  0
  1 20  1  0
  2 21  1  0
  3 22  1  0
  4 23  1  0
  5 24  1  0
  8 25  1  0
 13 26  1  0
 16 27  1  0
 16 28  1  0
 17 29  1  0
 18 30  1  0
M  RAD  1   1   2
M  END
$$$$

     RDKit          3D

 30 32  0  0  0  0  0  0  0  0999 V2000
  -14.5094   14.9027  -24.0082 C   0  0  0  0  0  3  0  0  0  0  0  0
  -13.4152   13.9333  -24.4051 C   0  0  0  0  0  0  0  0  0  0  0  0
  -12.0456   14.4821  -24.1287 C   0  0  0  0  0  0  0  0  0  0  0  0
  -11.2784   13.2704  -23.6812 C   0  0  0  0  0  0  0  0  0  0  0  0
  -12.2929   12.1620  -23.6266 C   0  0  0  0  0  0  0  0  0  0  0  0
  -13.5049   12.8339  -23.5880 O   0  0  0  0  0  0  0  0  0  0  0  0
  -12.2019   11.2355  -24.7128 N   0  0  0  0  0  0  0  0  0  0  0  0
  -13.1670   10.9658  -25.6016 C   0  0  0  0  0  0  0  0  0  0  0  0
  -12.7539   10.0512  -26.4873 N   0  0  0  0  0  0  0  0  0  0  0  0
  -11.4896    9.7371  -26.1434 C   0  0  0  0  0  0  0  0  0  0  0  0
  -11.1422   10.4770  -25.0332 C   0  0  0  0  0  0  0  0  0  0  0  0
   -9.8971   10.3271  -24.4986 N   0  0  0  0  0  0  0  0  0  0  0  0
   -8.9811    9.4873  -25.0018 C   0  0  0  0  0  0  0  0  0  0  0  0
   -9.3280    8.7700  -26.0838 N   0  0  0  0  0  0  0  0  0  0  0  0
  -10.5375    8.8704  -26.6588 C   0  0  0  0  0  0  0  0  0  0  0  0
  -10.9136    8.1144  -27.8053 N   0  0  0  0  0  0  0  0  0  0  0  0
  -10.2015   12.9870  -24.5109 O   0  0  0  0  0  0  0  0  0  0  0  0
  -11.4672   15.0009  -25.2807 O   0  0  0  0  0  0  0  0  0  0  0  0
  -14.4537   15.8529  -24.5567 H   0  0  0  0  0  0  0  0  0  0  0  0
  -15.4830   14.4081  -24.1840 H   0  0  0  0  0  0  0  0  0  0  0  0
  -13.5116   13.6896  -25.4667 H   0  0  0  0  0  0  0  0  0  0  0  0
  -12.0868   15.2764  -23.3586 H   0  0  0  0  0  0  0  0  0  0  0  0
  -10.8729   13.4599  -22.6560 H   0  0  0  0  0  0  0  0  0  0  0  0
  -12.1471   11.5960  -22.6846 H   0  0  0  0  0  0  0  0  0  0  0  0
  -14.1779   11.3921  -25.6613 H   0  0  0  0  0  0  0  0  0  0  0  0
   -7.9815    9.3882  -24.5464 H   0  0  0  0  0  0  0  0  0  0  0  0
  -10.5941    7.1339  -27.9007 H   0  0  0  0  0  0  0  0  0  0  0  0
  -11.5136    8.5618  -28.5447 H   0  0  0  0  0  0  0  0  0  0  0  0
   -9.4072   13.5178  -24.2242 H   0  0  0  0  0  0  0  0  0  0  0  0
  -12.0397   14.8448  -26.0766 H   0  0  0  0  0  0  0  0  0  0  0  0
  1  2  1  0
  2  3  1  0
  3  4  1  0
  4  5  1  0
  5  6  1  0
  5  7  1  0
  7  8  1  0
  8  9  2  0
  9 10  1  0
 10 11  2  0
 11 12  1  0
 12 13  2  0
 13 14  1  0
 14 15  2  0
 15 16  1  0
  4 17  1  0
  3 18  1  0
  6  2  1  0
 11  7  1  0
 15 10  1  0
  1 19  1  0
  1 20  1  0
  2 21  1  0
  3 22  1  0
  4 23  1  0
  5 24  1  0
  8 25  1  0
 13 26  1  0
 16 27  1  0
 16 28  1  0
 17 29  1  0
 18 30  1  0
M  RAD  1   1   2
M  END
$$$$

     RDKit          3D

 30 32  0  0  0  0  0  0  0  0999 V2000
  -14.5912   13.9985  -24.1606 C   0  0  0  0  0  3  0  0  0  0  0  0
  -13.2777   13.9110  -23.4341 C   0  0  0  0  0  0  0  0  0  0  0  0
  -12.2475   14.7698  -24.0802 C   0  0  0  0  0  0  0  0  0  0  0  0
  -11.2423   13.7980  -24.5915 C   0  0  0  0  0  0  0  0  0  0  0  0
  -11.6579   12.4745  -24.0291 C   0  0  0  0  0  0  0  0  0  0  0  0
  -12.8005   12.6432  -23.2888 O   0  0  0  0  0  0  0  0  0  0  0  0
  -11.7984   11.4545  -25.0481 N   0  0  0  0  0  0  0  0  0  0  0  0
  -12.7237   11.4418  -26.0147 C   0  0  0  0  0  0  0  0  0  0  0  0
  -12.4992   10.3286  -26.7366 N   0  0  0  0  0  0  0  0  0  0  0  0
  -11.4549    9.6374  -26.2501 C   0  0  0  0  0  0  0  0  0  0  0  0
  -10.9970   10.3538  -25.1633 C   0  0  0  0  0  0  0  0  0  0  0  0
   -9.9372    9.9453  -24.4186 N   0  0  0  0  0  0  0  0  0  0  0  0
   -9.3080    8.8032  -24.7473 C   0  0  0  0  0  0  0  0  0  0  0  0
   -9.7542    8.1065  -25.8052 N   0  0  0  0  0  0  0  0  0  0  0  0
  -10.7959    8.4738  -26.5663 C   0  0  0  0  0  0  0  0  0  0  0  0
  -11.2605    7.7370  -27.6775 N   0  0  0  0  0  0  0  0  0  0  0  0
   -9.9693   14.1995  -24.1380 O   0  0  0  0  0  0  0  0  0  0  0  0
  -12.8117   15.5317  -25.1057 O   0  0  0  0  0  0  0  0  0  0  0  0
  -15.3800   14.5225  -23.5632 H   0  0  0  0  0  0  0  0  0  0  0  0
  -14.4818   14.5756  -25.0999 H   0  0  0  0  0  0  0  0  0  0  0  0
  -13.4517   14.3242  -22.4003 H   0  0  0  0  0  0  0  0  0  0  0  0
  -11.7853   15.5026  -23.3576 H   0  0  0  0  0  0  0  0  0  0  0  0
  -11.1596   13.7915  -25.7104 H   0  0  0  0  0  0  0  0  0  0  0  0
  -10.8494   12.1711  -23.3010 H   0  0  0  0  0  0  0  0  0  0  0  0
  -13.4833   12.2014  -26.1485 H   0  0  0  0  0  0  0  0  0  0  0  0
   -8.4446    8.4327  -24.1729 H   0  0  0  0  0  0  0  0  0  0  0  0
  -10.8931    7.9990  -28.6186 H   0  0  0  0  0  0  0  0  0  0  0  0
  -11.9415    6.9513  -27.6381 H   0  0  0  0  0  0  0  0  0  0  0  0
  -10.0451   14.4345  -23.1605 H   0  0  0  0  0  0  0  0  0  0  0  0
  -12.2358   15.5772  -25.9104 H   0  0  0  0  0  0  0  0  0  0  0  0
  1  2  1  0
  2  3  1  0
  3  4  1  0
  4  5  1  0
  5  6  1  0
  5  7  1  0
  7  8  1  0
  8  9  2  0
  9 10  1  0
 10 11  2  0
 11 12  1  0
 12 13  2  0
 13 14  1  0
 14 15  2  0
 15 16  1  0
  4 17  1  0
  3 18  1  0
  6  2  1  0
 11  7  1  0
 15 10  1  0
  1 19  1  0
  1 20  1  0
  2 21  1  0
  3 22  1  0
  4 23  1  0
  5 24  1  0
  8 25  1  0
 13 26  1  0
 16 27  1  0
 16 28  1  0
 17 29  1  0
 18 30  1  0
M  RAD  1   1   2
M  END
$$$$

     RDKit          3D

 30 32  0  0  0  0  0  0  0  0999 V2000
  -12.1717   13.7177  -21.8289 C   0  0  0  0  0  3  0  0  0  0  0  0
  -11.7547   14.2293  -23.1752 C   0  0  0  0  0  0  0  0  0  0  0  0
  -12.9178   14.6830  -24.0125 C   0  0  0  0  0  0  0  0  0  0  0  0
  -12.8013   13.7706  -25.2243 C   0  0  0  0  0  0  0  0  0  0  0  0
  -12.1261   12.5807  -24.5741 C   0  0  0  0  0  0  0  0  0  0  0  0
  -11.1179   13.2088  -23.8535 O   0  0  0  0  0  0  0  0  0  0  0  0
  -11.6454   11.6240  -25.5189 N   0  0  0  0  0  0  0  0  0  0  0  0
  -11.4515   11.7875  -26.8404 C   0  0  0  0  0  0  0  0  0  0  0  0
  -10.9832   10.6145  -27.3480 N   0  0  0  0  0  0  0  0  0  0  0  0
  -10.8760    9.7016  -26.3618 C   0  0  0  0  0  0  0  0  0  0  0  0
  -11.3014   10.3610  -25.2050 C   0  0  0  0  0  0  0  0  0  0  0  0
  -11.2790    9.6300  -24.0739 N   0  0  0  0  0  0  0  0  0  0  0  0
  -10.8783    8.3468  -24.0299 C   0  0  0  0  0  0  0  0  0  0  0  0
  -10.4745    7.7404  -25.1611 N   0  0  0  0  0  0  0  0  0  0  0  0
  -10.4603    8.3860  -26.3426 C   0  0  0  0  0  0  0  0  0  0  0  0
  -10.0279    7.7380  -27.5566 N   0  0  0  0  0  0  0  0  0  0  0  0
  -14.0124   13.4710  -25.7883 O   0  0  0  0  0  0  0  0  0  0  0  0
  -12.8476   16.0169  -24.3611 O   0  0  0  0  0  0  0  0  0  0  0  0
  -13.2576   13.4645  -21.7724 H   0  0  0  0  0  0  0  0  0  0  0  0
  -11.8736   14.4272  -21.0293 H   0  0  0  0  0  0  0  0  0  0  0  0
  -11.0795   15.1117  -23.0314 H   0  0  0  0  0  0  0  0  0  0  0  0
  -13.9060   14.4403  -23.5308 H   0  0  0  0  0  0  0  0  0  0  0  0
  -12.0963   14.2743  -25.9430 H   0  0  0  0  0  0  0  0  0  0  0  0
  -12.8474   12.1654  -23.8406 H   0  0  0  0  0  0  0  0  0  0  0  0
  -11.6282   12.6841  -27.4259 H   0  0  0  0  0  0  0  0  0  0  0  0
  -10.8859    7.8108  -23.0713 H   0  0  0  0  0  0  0  0  0  0  0  0
   -9.0312    7.6745  -27.8252 H   0  0  0  0  0  0  0  0  0  0  0  0
  -10.7277    7.3146  -28.1957 H   0  0  0  0  0  0  0  0  0  0  0  0
  -14.6609   14.1952  -25.8031 H   0  0  0  0  0  0  0  0  0  0  0  0
  -13.4901   16.5063  -23.7848 H   0  0  0  0  0  0  0  0  0  0  0  0
  1  2  1  0
  2  3  1  0
  3  4  1  0
  4  5  1  0
  5  6  1  0
  5  7  1  0
  7  8  1  0
  8  9  2  0
  9 10  1  0
 10 11  2  0
 11 12  1  0
 12 13  2  0
 13 14  1  0
 14 15  2  0
 15 16  1  0
  4 17  1  0
  3 18  1  0
  6  2  1  0
 11  7  1  0
 15 10  1  0
  1 19  1  0
  1 20  1  0
  2 21  1  0
  3 22  1  0
  4 23  1  0
  5 24  1  0
  8 25  1  0
 13 26  1  0
 16 27  1  0
 16 28  1  0
 17 29  1  0
 18 30  1  0
M  RAD  1   1   2
M  END
$$$$

     RDKit          3D

 30 32  0  0  0  0  0  0  0  0999 V2000
  -12.7933   13.9259  -21.7785 C   0  0  0  0  0  3  0  0  0  0  0  0
  -12.8976   13.7949  -23.2482 C   0  0  0  0  0  0  0  0  0  0  0  0
  -11.7440   14.4749  -23.9951 C   0  0  0  0  0  0  0  0  0  0  0  0
  -12.0291   13.9320  -25.4040 C   0  0  0  0  0  0  0  0  0  0  0  0
  -12.7913   12.6604  -25.0940 C   0  0  0  0  0  0  0  0  0  0  0  0
  -12.7819   12.4968  -23.7262 O   0  0  0  0  0  0  0  0  0  0  0  0
  -12.2277   11.5277  -25.7972 N   0  0  0  0  0  0  0  0  0  0  0  0
  -12.4399   11.3212  -27.1244 C   0  0  0  0  0  0  0  0  0  0  0  0
  -11.7868   10.1957  -27.4686 N   0  0  0  0  0  0  0  0  0  0  0  0
  -11.1718    9.7007  -26.3723 C   0  0  0  0  0  0  0  0  0  0  0  0
  -11.4538   10.5511  -25.3075 C   0  0  0  0  0  0  0  0  0  0  0  0
  -10.9818   10.3269  -24.0744 N   0  0  0  0  0  0  0  0  0  0  0  0
  -10.2073    9.2230  -23.9022 C   0  0  0  0  0  0  0  0  0  0  0  0
   -9.9192    8.3842  -24.9147 N   0  0  0  0  0  0  0  0  0  0  0  0
  -10.3803    8.5865  -26.1615 C   0  0  0  0  0  0  0  0  0  0  0  0
  -10.1005    7.7290  -27.2525 N   0  0  0  0  0  0  0  0  0  0  0  0
  -12.9036   14.8210  -26.0092 O   0  0  0  0  0  0  0  0  0  0  0  0
  -10.5171   13.9564  -23.6256 O   0  0  0  0  0  0  0  0  0  0  0  0
  -13.1561   14.9180  -21.4727 H   0  0  0  0  0  0  0  0  0  0  0  0
  -11.8538   13.6250  -21.3247 H   0  0  0  0  0  0  0  0  0  0  0  0
  -13.8201   14.3039  -23.5902 H   0  0  0  0  0  0  0  0  0  0  0  0
  -11.8093   15.5614  -23.9547 H   0  0  0  0  0  0  0  0  0  0  0  0
  -11.1101   13.7683  -25.9665 H   0  0  0  0  0  0  0  0  0  0  0  0
  -13.8662   12.7436  -25.4110 H   0  0  0  0  0  0  0  0  0  0  0  0
  -13.0207   11.9254  -27.8157 H   0  0  0  0  0  0  0  0  0  0  0  0
   -9.7951    8.9853  -22.9307 H   0  0  0  0  0  0  0  0  0  0  0  0
  -10.3244    6.7074  -27.1954 H   0  0  0  0  0  0  0  0  0  0  0  0
   -9.6741    8.1268  -28.1008 H   0  0  0  0  0  0  0  0  0  0  0  0
  -13.8297   14.4555  -26.0513 H   0  0  0  0  0  0  0  0  0  0  0  0
  -10.3506   13.9149  -22.6730 H   0  0  0  0  0  0  0  0  0  0  0  0
  1  2  1  0
  2  3  1  0
  3  4  1  0
  4  5  1  0
  5  6  1  0
  5  7  1  0
  7  8  1  0
  8  9  2  0
  9 10  1  0
 10 11  2  0
 11 12  1  0
 12 13  2  0
 13 14  1  0
 14 15  2  0
 15 16  1  0
  4 17  1  0
  3 18  1  0
  6  2  1  0
 11  7  1  0
 15 10  1  0
  1 19  1  0
  1 20  1  0
  2 21  1  0
  3 22  1  0
  4 23  1  0
  5 24  1  0
  8 25  1  0
 13 26  1  0
 16 27  1  0
 16 28  1  0
 17 29  1  0
 18 30  1  0
M  RAD  1   1   2
M  END
$$$$

     RDKit          3D

 30 32  0  0  0  0  0  0  0  0999 V2000
  -14.3505   15.1193  -23.8204 C   0  0  0  0  0  3  0  0  0  0  0  0
  -13.3989   13.9629  -23.5688 C   0  0  0  0  0  0  0  0  0  0  0  0
  -11.9798   14.4353  -23.5974 C   0  0  0  0  0  0  0  0  0  0  0  0
  -11.2912   13.2848  -24.3432 C   0  0  0  0  0  0  0  0  0  0  0  0
  -12.4165   12.8097  -25.2161 C   0  0  0  0  0  0  0  0  0  0  0  0
  -13.5454   12.9308  -24.4516 O   0  0  0  0  0  0  0  0  0  0  0  0
  -12.2179   11.4541  -25.6866 N   0  0  0  0  0  0  0  0  0  0  0  0
  -13.1392   10.7851  -26.3946 C   0  0  0  0  0  0  0  0  0  0  0  0
  -12.6721    9.5535  -26.6883 N   0  0  0  0  0  0  0  0  0  0  0  0
  -11.4579    9.4424  -26.1676 C   0  0  0  0  0  0  0  0  0  0  0  0
  -11.1774   10.6384  -25.5398 C   0  0  0  0  0  0  0  0  0  0  0  0
  -10.0012   10.8260  -24.9128 N   0  0  0  0  0  0  0  0  0  0  0  0
   -9.1221    9.8073  -24.9256 C   0  0  0  0  0  0  0  0  0  0  0  0
   -9.3794    8.6324  -25.5338 N   0  0  0  0  0  0  0  0  0  0  0  0
  -10.5380    8.3878  -26.1763 C   0  0  0  0  0  0  0  0  0  0  0  0
  -10.8175    7.1587  -26.8174 N   0  0  0  0  0  0  0  0  0  0  0  0
  -10.1964   13.7162  -25.0518 O   0  0  0  0  0  0  0  0  0  0  0  0
  -11.4256   14.6632  -22.3638 O   0  0  0  0  0  0  0  0  0  0  0  0
  -14.4380   15.7078  -22.8776 H   0  0  0  0  0  0  0  0  0  0  0  0
  -15.3435   14.6688  -24.0875 H   0  0  0  0  0  0  0  0  0  0  0  0
  -13.6518   13.5591  -22.5446 H   0  0  0  0  0  0  0  0  0  0  0  0
  -11.9354   15.3187  -24.2729 H   0  0  0  0  0  0  0  0  0  0  0  0
  -11.0556   12.5035  -23.5943 H   0  0  0  0  0  0  0  0  0  0  0  0
  -12.4289   13.4572  -26.1366 H   0  0  0  0  0  0  0  0  0  0  0  0
  -14.1241   11.1792  -26.6907 H   0  0  0  0  0  0  0  0  0  0  0  0
   -8.1616    9.9446  -24.4202 H   0  0  0  0  0  0  0  0  0  0  0  0
  -11.4311    6.4657  -26.3606 H   0  0  0  0  0  0  0  0  0  0  0  0
  -10.4133    6.9409  -27.7453 H   0  0  0  0  0  0  0  0  0  0  0  0
  -10.4250   14.0036  -25.9730 H   0  0  0  0  0  0  0  0  0  0  0  0
  -10.9489   15.5490  -22.4094 H   0  0  0  0  0  0  0  0  0  0  0  0
  1  2  1  0
  2  3  1  0
  3  4  1  0
  4  5  1  0
  5  6  1  0
  5  7  1  0
  7  8  1  0
  8  9  2  0
  9 10  1  0
 10 11  2  0
 11 12  1  0
 12 13  2  0
 13 14  1  0
 14 15  2  0
 15 16  1  0
  4 17  1  0
  3 18  1  0
  6  2  1  0
 11  7  1  0
 15 10  1  0
  1 19  1  0
  1 20  1  0
  2 21  1  0
  3 22  1  0
  4 23  1  0
  5 24  1  0
  8 25  1  0
 13 26  1  0
 16 27  1  0
 16 28  1  0
 17 29  1  0
 18 30  1  0
M  RAD  1   1   2
M  END
$$$$

     RDKit          3D

 30 32  0  0  0  0  0  0  0  0999 V2000
  -14.3367   14.5503  -24.3227 C   0  0  0  0  0  3  0  0  0  0  0  0
  -12.9243   14.7853  -24.8764 C   0  0  0  0  0  0  0  0  0  0  0  0
  -11.9946   14.6875  -23.6830 C   0  0  0  0  0  0  0  0  0  0  0  0
  -11.8686   13.1595  -23.6043 C   0  0  0  0  0  0  0  0  0  0  0  0
  -11.7603   12.8890  -25.1103 C   0  0  0  0  0  0  0  0  0  0  0  0
  -12.6443   13.7390  -25.7131 O   0  0  0  0  0  0  0  0  0  0  0  0
  -11.9505   11.4997  -25.4180 N   0  0  0  0  0  0  0  0  0  0  0  0
  -13.1043   10.8364  -25.5624 C   0  0  0  0  0  0  0  0  0  0  0  0
  -12.8561    9.5317  -25.8523 N   0  0  0  0  0  0  0  0  0  0  0  0
  -11.5290    9.3574  -25.8941 C   0  0  0  0  0  0  0  0  0  0  0  0
  -10.9635   10.6031  -25.6192 C   0  0  0  0  0  0  0  0  0  0  0  0
   -9.6326   10.6727  -25.6069 N   0  0  0  0  0  0  0  0  0  0  0  0
   -8.8209    9.6243  -25.8414 C   0  0  0  0  0  0  0  0  0  0  0  0
   -9.4000    8.4480  -26.1009 N   0  0  0  0  0  0  0  0  0  0  0  0
  -10.7261    8.2616  -26.1391 C   0  0  0  0  0  0  0  0  0  0  0  0
  -11.2655    6.9820  -26.4216 N   0  0  0  0  0  0  0  0  0  0  0  0
  -10.7504   12.7668  -22.9203 O   0  0  0  0  0  0  0  0  0  0  0  0
  -12.5992   15.2138  -22.5700 O   0  0  0  0  0  0  0  0  0  0  0  0
  -14.5913   15.4270  -23.6912 H   0  0  0  0  0  0  0  0  0  0  0  0
  -15.0573   14.3313  -25.1092 H   0  0  0  0  0  0  0  0  0  0  0  0
  -12.8607   15.7760  -25.3713 H   0  0  0  0  0  0  0  0  0  0  0  0
  -10.9969   15.1274  -23.9075 H   0  0  0  0  0  0  0  0  0  0  0  0
  -12.8132   12.7598  -23.2463 H   0  0  0  0  0  0  0  0  0  0  0  0
  -10.7246   13.2194  -25.3860 H   0  0  0  0  0  0  0  0  0  0  0  0
  -14.0763   11.2970  -25.4579 H   0  0  0  0  0  0  0  0  0  0  0  0
   -7.7357    9.7624  -25.8133 H   0  0  0  0  0  0  0  0  0  0  0  0
  -12.2095    6.8279  -26.8271 H   0  0  0  0  0  0  0  0  0  0  0  0
  -10.6831    6.1539  -26.2108 H   0  0  0  0  0  0  0  0  0  0  0  0
  -10.5585   11.8166  -23.1924 H   0  0  0  0  0  0  0  0  0  0  0  0
  -12.1113   16.0439  -22.2711 H   0  0  0  0  0  0  0  0  0  0  0  0
  1  2  1  0
  2  3  1  0
  3  4  1  0
  4  5  1  0
  5  6  1  0
  5  7  1  0
  7  8  1  0
  8  9  2  0
  9 10  1  0
 10 11  2  0
 11 12  1  0
 12 13  2  0
 13 14  1  0
 14 15  2  0
 15 16  1  0
  4 17  1  0
  3 18  1  0
  6  2  1  0
 11  7  1  0
 15 10  1  0
  1 19  1  0
  1 20  1  0
  2 21  1  0
  3 22  1  0
  4 23  1  0
  5 24  1  0
  8 25  1  0
 13 26  1  0
 16 27  1  0
 16 28  1  0
 17 29  1  0
 18 30  1  0
M  RAD  1   1   2
M  END
$$$$

     RDKit          3D

 30 32  0  0  0  0  0  0  0  0999 V2000
  -13.1117   13.4579  -21.9510 C   0  0  0  0  0  3  0  0  0  0  0  0
  -12.0993   13.7746  -23.0261 C   0  0  0  0  0  0  0  0  0  0  0  0
  -12.7538   14.6867  -24.0293 C   0  0  0  0  0  0  0  0  0  0  0  0
  -12.6383   13.8705  -25.3206 C   0  0  0  0  0  0  0  0  0  0  0  0
  -11.4403   13.0030  -25.0007 C   0  0  0  0  0  0  0  0  0  0  0  0
  -11.7407   12.6148  -23.6800 O   0  0  0  0  0  0  0  0  0  0  0  0
  -11.3496   11.8475  -25.8581 N   0  0  0  0  0  0  0  0  0  0  0  0
  -11.5162   11.7378  -27.1706 C   0  0  0  0  0  0  0  0  0  0  0  0
  -11.3310   10.4595  -27.5228 N   0  0  0  0  0  0  0  0  0  0  0  0
  -11.0420    9.7373  -26.4265 C   0  0  0  0  0  0  0  0  0  0  0  0
  -11.0519   10.6061  -25.3722 C   0  0  0  0  0  0  0  0  0  0  0  0
  -10.7911   10.1433  -24.1383 N   0  0  0  0  0  0  0  0  0  0  0  0
  -10.5168    8.8592  -23.8720 C   0  0  0  0  0  0  0  0  0  0  0  0
  -10.5044    7.9954  -24.9019 N   0  0  0  0  0  0  0  0  0  0  0  0
  -10.7598    8.4084  -26.1625 C   0  0  0  0  0  0  0  0  0  0  0  0
  -10.7409    7.4808  -27.2293 N   0  0  0  0  0  0  0  0  0  0  0  0
  -13.7715   13.0701  -25.4743 O   0  0  0  0  0  0  0  0  0  0  0  0
  -11.9676   15.8551  -24.1198 O   0  0  0  0  0  0  0  0  0  0  0  0
  -13.4832   12.4158  -22.0054 H   0  0  0  0  0  0  0  0  0  0  0  0
  -12.6423   13.6574  -20.9660 H   0  0  0  0  0  0  0  0  0  0  0  0
  -11.1673   14.2158  -22.5917 H   0  0  0  0  0  0  0  0  0  0  0  0
  -13.7917   14.9213  -23.7778 H   0  0  0  0  0  0  0  0  0  0  0  0
  -12.5108   14.4956  -26.2024 H   0  0  0  0  0  0  0  0  0  0  0  0
  -10.5288   13.6022  -24.9594 H   0  0  0  0  0  0  0  0  0  0  0  0
  -11.7649   12.5962  -27.8079 H   0  0  0  0  0  0  0  0  0  0  0  0
  -10.3072    8.5123  -22.8480 H   0  0  0  0  0  0  0  0  0  0  0  0
  -11.4211    6.7002  -27.2151 H   0  0  0  0  0  0  0  0  0  0  0  0
  -10.0553    7.5986  -27.9952 H   0  0  0  0  0  0  0  0  0  0  0  0
  -13.8350   12.3801  -24.7615 H   0  0  0  0  0  0  0  0  0  0  0  0
  -11.0684   15.7031  -23.6962 H   0  0  0  0  0  0  0  0  0  0  0  0
  1  2  1  0
  2  3  1  0
  3  4  1  0
  4  5  1  0
  5  6  1  0
  5  7  1  0
  7  8  1  0
  8  9  2  0
  9 10  1  0
 10 11  2  0
 11 12  1  0
 12 13  2  0
 13 14  1  0
 14 15  2  0
 15 16  1  0
  4 17  1  0
  3 18  1  0
  6  2  1  0
 11  7  1  0
 15 10  1  0
  1 19  1  0
  1 20  1  0
  2 21  1  0
  3 22  1  0
  4 23  1  0
  5 24  1  0
  8 25  1  0
 13 26  1  0
 16 27  1  0
 16 28  1  0
 17 29  1  0
 18 30  1  0
M  RAD  1   1   2
M  END
$$$$

     RDKit          3D

 30 32  0  0  0  0  0  0  0  0999 V2000
  -14.5906   14.9212  -23.7220 C   0  0  0  0  0  3  0  0  0  0  0  0
  -13.5557   14.0973  -24.4442 C   0  0  0  0  0  0  0  0  0  0  0  0
  -12.1871   14.7840  -24.4124 C   0  0  0  0  0  0  0  0  0  0  0  0
  -11.3079   13.6088  -24.8377 C   0  0  0  0  0  0  0  0  0  0  0  0
  -12.0467   12.4658  -24.1957 C   0  0  0  0  0  0  0  0  0  0  0  0
  -13.2832   12.9050  -23.8171 O   0  0  0  0  0  0  0  0  0  0  0  0
  -12.0880   11.3212  -25.0828 N   0  0  0  0  0  0  0  0  0  0  0  0
  -13.0675   10.9053  -25.9035 C   0  0  0  0  0  0  0  0  0  0  0  0
  -12.7003    9.7867  -26.5598 N   0  0  0  0  0  0  0  0  0  0  0  0
  -11.4732    9.4601  -26.1727 C   0  0  0  0  0  0  0  0  0  0  0  0
  -11.0863   10.4128  -25.2521 C   0  0  0  0  0  0  0  0  0  0  0  0
   -9.8834   10.3496  -24.6783 N   0  0  0  0  0  0  0  0  0  0  0  0
   -9.0270    9.3591  -24.9849 C   0  0  0  0  0  0  0  0  0  0  0  0
   -9.4101    8.4359  -25.8811 N   0  0  0  0  0  0  0  0  0  0  0  0
  -10.6053    8.4366  -26.4982 C   0  0  0  0  0  0  0  0  0  0  0  0
  -10.9561    7.4322  -27.4393 N   0  0  0  0  0  0  0  0  0  0  0  0
  -10.0496   13.8201  -24.2576 O   0  0  0  0  0  0  0  0  0  0  0  0
  -11.8092   15.1063  -23.1166 O   0  0  0  0  0  0  0  0  0  0  0  0
  -14.9348   15.7018  -24.4309 H   0  0  0  0  0  0  0  0  0  0  0  0
  -15.4581   14.2737  -23.4818 H   0  0  0  0  0  0  0  0  0  0  0  0
  -13.8020   13.9076  -25.4920 H   0  0  0  0  0  0  0  0  0  0  0  0
  -12.1269   15.6173  -25.1086 H   0  0  0  0  0  0  0  0  0  0  0  0
  -11.2270   13.5095  -25.9192 H   0  0  0  0  0  0  0  0  0  0  0  0
  -11.4784   12.2210  -23.2505 H   0  0  0  0  0  0  0  0  0  0  0  0
  -14.0207   11.4410  -25.9909 H   0  0  0  0  0  0  0  0  0  0  0  0
   -8.0349    9.3154  -24.5053 H   0  0  0  0  0  0  0  0  0  0  0  0
  -11.3960    7.7146  -28.3369 H   0  0  0  0  0  0  0  0  0  0  0  0
  -10.7718    6.4321  -27.2248 H   0  0  0  0  0  0  0  0  0  0  0  0
   -9.3801   13.4495  -24.8969 H   0  0  0  0  0  0  0  0  0  0  0  0
  -12.2294   14.4868  -22.4733 H   0  0  0  0  0  0  0  0  0  0  0  0
  1  2  1  0
  2  3  1  0
  3  4  1  0
  4  5  1  0
  5  6  1  0
  5  7  1  0
  7  8  1  0
  8  9  2  0
  9 10  1  0
 10 11  2  0
 11 12  1  0
 12 13  2  0
 13 14  1  0
 14 15  2  0
 15 16  1  0
  4 17  1  0
  3 18  1  0
  6  2  1  0
 11  7  1  0
 15 10  1  0
  1 19  1  0
  1 20  1  0
  2 21  1  0
  3 22  1  0
  4 23  1  0
  5 24  1  0
  8 25  1  0
 13 26  1  0
 16 27  1  0
 16 28  1  0
 17 29  1  0
 18 30  1  0
M  RAD  1   1   2
M  END
$$$$

     RDKit          3D

 30 32  0  0  0  0  0  0  0  0999 V2000
  -12.6421   15.9203  -24.9679 C   0  0  0  0  0  3  0  0  0  0  0  0
  -13.1991   14.6066  -24.4761 C   0  0  0  0  0  0  0  0  0  0  0  0
  -12.5300   14.1632  -23.2175 C   0  0  0  0  0  0  0  0  0  0  0  0
  -11.6857   12.9991  -23.6530 C   0  0  0  0  0  0  0  0  0  0  0  0
  -11.9130   12.9106  -25.1391 C   0  0  0  0  0  0  0  0  0  0  0  0
  -13.0884   13.5959  -25.4088 O   0  0  0  0  0  0  0  0  0  0  0  0
  -12.0419   11.5191  -25.5079 N   0  0  0  0  0  0  0  0  0  0  0  0
  -13.1496   10.8180  -25.8098 C   0  0  0  0  0  0  0  0  0  0  0  0
  -12.8338    9.5426  -26.0995 N   0  0  0  0  0  0  0  0  0  0  0  0
  -11.4944    9.3963  -25.9877 C   0  0  0  0  0  0  0  0  0  0  0  0
  -11.0178   10.6370  -25.6186 C   0  0  0  0  0  0  0  0  0  0  0  0
   -9.6906   10.7963  -25.4303 N   0  0  0  0  0  0  0  0  0  0  0  0
   -8.8871    9.7413  -25.6096 C   0  0  0  0  0  0  0  0  0  0  0  0
   -9.3328    8.5286  -25.9681 N   0  0  0  0  0  0  0  0  0  0  0  0
  -10.6502    8.3204  -26.1678 C   0  0  0  0  0  0  0  0  0  0  0  0
  -11.1737    7.0547  -26.5485 N   0  0  0  0  0  0  0  0  0  0  0  0
  -10.3285   13.2397  -23.3983 O   0  0  0  0  0  0  0  0  0  0  0  0
  -13.4687   13.8182  -22.2472 O   0  0  0  0  0  0  0  0  0  0  0  0
  -12.3026   16.4958  -24.0835 H   0  0  0  0  0  0  0  0  0  0  0  0
  -11.7725   15.7736  -25.6357 H   0  0  0  0  0  0  0  0  0  0  0  0
  -14.2867   14.7501  -24.2648 H   0  0  0  0  0  0  0  0  0  0  0  0
  -11.8457   14.9807  -22.8462 H   0  0  0  0  0  0  0  0  0  0  0  0
  -11.9842   12.0682  -23.1263 H   0  0  0  0  0  0  0  0  0  0  0  0
  -11.0622   13.3643  -25.6842 H   0  0  0  0  0  0  0  0  0  0  0  0
  -14.1498   11.2270  -25.8170 H   0  0  0  0  0  0  0  0  0  0  0  0
   -7.8254    9.8718  -25.4582 H   0  0  0  0  0  0  0  0  0  0  0  0
  -10.7839    6.4919  -27.3357 H   0  0  0  0  0  0  0  0  0  0  0  0
  -11.9818    6.6820  -26.0113 H   0  0  0  0  0  0  0  0  0  0  0  0
   -9.8222   13.3898  -24.2555 H   0  0  0  0  0  0  0  0  0  0  0  0
  -14.2344   14.4565  -22.3684 H   0  0  0  0  0  0  0  0  0  0  0  0
  1  2  1  0
  2  3  1  0
  3  4  1  0
  4  5  1  0
  5  6  1  0
  5  7  1  0
  7  8  1  0
  8  9  2  0
  9 10  1  0
 10 11  2  0
 11 12  1  0
 12 13  2  0
 13 14  1  0
 14 15  2  0
 15 16  1  0
  4 17  1  0
  3 18  1  0
  6  2  1  0
 11  7  1  0
 15 10  1  0
  1 19  1  0
  1 20  1  0
  2 21  1  0
  3 22  1  0
  4 23  1  0
  5 24  1  0
  8 25  1  0
 13 26  1  0
 16 27  1  0
 16 28  1  0
 17 29  1  0
 18 30  1  0
M  RAD  1   1   2
M  END
$$$$

     RDKit          3D

 30 32  0  0  0  0  0  0  0  0999 V2000
  -13.1007   13.4529  -21.9247 C   0  0  0  0  0  3  0  0  0  0  0  0
  -13.1789   13.9394  -23.3356 C   0  0  0  0  0  0  0  0  0  0  0  0
  -12.0096   14.7669  -23.7596 C   0  0  0  0  0  0  0  0  0  0  0  0
  -11.4157   13.9129  -24.8876 C   0  0  0  0  0  0  0  0  0  0  0  0
  -11.9347   12.5528  -24.4491 C   0  0  0  0  0  0  0  0  0  0  0  0
  -13.2671   12.8562  -24.2060 O   0  0  0  0  0  0  0  0  0  0  0  0
  -11.7514   11.5464  -25.4586 N   0  0  0  0  0  0  0  0  0  0  0  0
  -12.0881   11.5652  -26.7387 C   0  0  0  0  0  0  0  0  0  0  0  0
  -11.7266   10.4063  -27.3148 N   0  0  0  0  0  0  0  0  0  0  0  0
  -11.1430    9.6178  -26.3909 C   0  0  0  0  0  0  0  0  0  0  0  0
  -11.1590   10.3388  -25.2183 C   0  0  0  0  0  0  0  0  0  0  0  0
  -10.6426    9.8310  -24.0761 N   0  0  0  0  0  0  0  0  0  0  0  0
  -10.1042    8.6092  -24.0703 C   0  0  0  0  0  0  0  0  0  0  0  0
  -10.0857    7.9006  -25.2120 N   0  0  0  0  0  0  0  0  0  0  0  0
  -10.5881    8.3705  -26.3649 C   0  0  0  0  0  0  0  0  0  0  0  0
  -10.5436    7.5918  -27.5254 N   0  0  0  0  0  0  0  0  0  0  0  0
  -12.0225   14.3390  -26.0581 O   0  0  0  0  0  0  0  0  0  0  0  0
  -12.3655   16.0101  -24.2654 O   0  0  0  0  0  0  0  0  0  0  0  0
  -12.9214   14.2726  -21.2319 H   0  0  0  0  0  0  0  0  0  0  0  0
  -12.3704   12.6607  -21.7478 H   0  0  0  0  0  0  0  0  0  0  0  0
  -14.0887   14.5700  -23.4245 H   0  0  0  0  0  0  0  0  0  0  0  0
  -11.2140   14.8457  -22.9769 H   0  0  0  0  0  0  0  0  0  0  0  0
  -10.3190   13.9633  -24.9063 H   0  0  0  0  0  0  0  0  0  0  0  0
  -11.4158   12.3024  -23.5168 H   0  0  0  0  0  0  0  0  0  0  0  0
  -12.5876   12.4060  -27.2449 H   0  0  0  0  0  0  0  0  0  0  0  0
   -9.6780    8.1776  -23.1487 H   0  0  0  0  0  0  0  0  0  0  0  0
   -9.6608    7.5670  -28.1047 H   0  0  0  0  0  0  0  0  0  0  0  0
  -11.3540    7.0277  -27.8473 H   0  0  0  0  0  0  0  0  0  0  0  0
  -11.8404   15.3079  -26.1619 H   0  0  0  0  0  0  0  0  0  0  0  0
  -12.6899   16.5653  -23.5194 H   0  0  0  0  0  0  0  0  0  0  0  0
  1  2  1  0
  2  3  1  0
  3  4  1  0
  4  5  1  0
  5  6  1  0
  5  7  1  0
  7  8  1  0
  8  9  2  0
  9 10  1  0
 10 11  2  0
 11 12  1  0
 12 13  2  0
 13 14  1  0
 14 15  2  0
 15 16  1  0
  4 17  1  0
  3 18  1  0
  6  2  1  0
 11  7  1  0
 15 10  1  0
  1 19  1  0
  1 20  1  0
  2 21  1  0
  3 22  1  0
  4 23  1  0
  5 24  1  0
  8 25  1  0
 13 26  1  0
 16 27  1  0
 16 28  1  0
 17 29  1  0
 18 30  1  0
M  RAD  1   1   2
M  END
$$$$

     RDKit          3D

 30 32  0  0  0  0  0  0  0  0999 V2000
  -14.1519   15.2806  -24.6472 C   0  0  0  0  0  3  0  0  0  0  0  0
  -13.4704   14.2248  -23.8227 C   0  0  0  0  0  0  0  0  0  0  0  0
  -12.0179   14.5022  -23.5926 C   0  0  0  0  0  0  0  0  0  0  0  0
  -11.3673   13.3169  -24.3182 C   0  0  0  0  0  0  0  0  0  0  0  0
  -12.4314   12.2607  -24.0816 C   0  0  0  0  0  0  0  0  0  0  0  0
  -13.5945   12.9914  -24.4129 O   0  0  0  0  0  0  0  0  0  0  0  0
  -12.2849   11.1180  -24.9221 N   0  0  0  0  0  0  0  0  0  0  0  0
  -13.3097   10.5010  -25.5382 C   0  0  0  0  0  0  0  0  0  0  0  0
  -12.7899    9.4757  -26.2353 N   0  0  0  0  0  0  0  0  0  0  0  0
  -11.4564    9.4284  -26.0748 C   0  0  0  0  0  0  0  0  0  0  0  0
  -11.1448   10.4784  -25.2369 C   0  0  0  0  0  0  0  0  0  0  0  0
   -9.8437   10.6380  -24.9251 N   0  0  0  0  0  0  0  0  0  0  0  0
   -8.8994    9.8080  -25.4124 C   0  0  0  0  0  0  0  0  0  0  0  0
   -9.2171    8.7831  -26.2323 N   0  0  0  0  0  0  0  0  0  0  0  0
  -10.5052    8.5773  -26.5770 C   0  0  0  0  0  0  0  0  0  0  0  0
  -10.8878    7.5078  -27.4401 N   0  0  0  0  0  0  0  0  0  0  0  0
  -10.1707   13.0052  -23.7096 O   0  0  0  0  0  0  0  0  0  0  0  0
  -11.5841   15.7105  -24.0769 O   0  0  0  0  0  0  0  0  0  0  0  0
  -15.0009   14.7992  -25.1737 H   0  0  0  0  0  0  0  0  0  0  0  0
  -13.4661   15.8086  -25.3361 H   0  0  0  0  0  0  0  0  0  0  0  0
  -14.0201   14.1782  -22.8462 H   0  0  0  0  0  0  0  0  0  0  0  0
  -11.7779   14.3798  -22.5029 H   0  0  0  0  0  0  0  0  0  0  0  0
  -11.1991   13.5343  -25.3715 H   0  0  0  0  0  0  0  0  0  0  0  0
  -12.4340   12.0352  -23.0082 H   0  0  0  0  0  0  0  0  0  0  0  0
  -14.3676   10.7257  -25.5243 H   0  0  0  0  0  0  0  0  0  0  0  0
   -7.8814    9.9735  -25.1379 H   0  0  0  0  0  0  0  0  0  0  0  0
  -10.2422    7.0971  -28.1381 H   0  0  0  0  0  0  0  0  0  0  0  0
  -11.8466    7.1027  -27.3905 H   0  0  0  0  0  0  0  0  0  0  0  0
   -9.4928   13.6417  -24.0528 H   0  0  0  0  0  0  0  0  0  0  0  0
  -11.4882   16.3218  -23.2785 H   0  0  0  0  0  0  0  0  0  0  0  0
  1  2  1  0
  2  3  1  0
  3  4  1  0
  4  5  1  0
  5  6  1  0
  5  7  1  0
  7  8  1  0
  8  9  2  0
  9 10  1  0
 10 11  2  0
 11 12  1  0
 12 13  2  0
 13 14  1  0
 14 15  2  0
 15 16  1  0
  4 17  1  0
  3 18  1  0
  6  2  1  0
 11  7  1  0
 15 10  1  0
  1 19  1  0
  1 20  1  0
  2 21  1  0
  3 22  1  0
  4 23  1  0
  5 24  1  0
  8 25  1  0
 13 26  1  0
 16 27  1  0
 16 28  1  0
 17 29  1  0
 18 30  1  0
M  RAD  1   1   2
M  END
$$$$

     RDKit          3D

 30 32  0  0  0  0  0  0  0  0999 V2000
  -11.6462   15.3065  -22.9772 C   0  0  0  0  0  3  0  0  0  0  0  0
  -11.4946   14.6369  -24.3384 C   0  0  0  0  0  0  0  0  0  0  0  0
  -12.9057   14.4622  -24.9062 C   0  0  0  0  0  0  0  0  0  0  0  0
  -13.2722   13.1265  -24.2502 C   0  0  0  0  0  0  0  0  0  0  0  0
  -11.9350   12.4434  -24.2107 C   0  0  0  0  0  0  0  0  0  0  0  0
  -10.9516   13.3868  -24.2507 O   0  0  0  0  0  0  0  0  0  0  0  0
  -11.8010   11.4167  -25.2126 N   0  0  0  0  0  0  0  0  0  0  0  0
  -12.4242   11.4099  -26.4016 C   0  0  0  0  0  0  0  0  0  0  0  0
  -12.0682   10.2903  -27.0965 N   0  0  0  0  0  0  0  0  0  0  0  0
  -11.2148    9.5867  -26.3400 C   0  0  0  0  0  0  0  0  0  0  0  0
  -11.0504   10.2861  -25.1731 C   0  0  0  0  0  0  0  0  0  0  0  0
  -10.2357    9.7814  -24.2468 N   0  0  0  0  0  0  0  0  0  0  0  0
   -9.6008    8.6060  -24.4813 C   0  0  0  0  0  0  0  0  0  0  0  0
   -9.7522    7.9104  -25.6189 N   0  0  0  0  0  0  0  0  0  0  0  0
  -10.5772    8.3992  -26.5842 C   0  0  0  0  0  0  0  0  0  0  0  0
  -10.7773    7.7076  -27.8093 N   0  0  0  0  0  0  0  0  0  0  0  0
  -13.6577   13.4300  -22.9511 O   0  0  0  0  0  0  0  0  0  0  0  0
  -13.7622   15.4214  -24.4072 O   0  0  0  0  0  0  0  0  0  0  0  0
  -12.5616   15.9375  -22.9791 H   0  0  0  0  0  0  0  0  0  0  0  0
  -10.7651   15.9126  -22.7085 H   0  0  0  0  0  0  0  0  0  0  0  0
  -10.9592   15.2943  -25.0524 H   0  0  0  0  0  0  0  0  0  0  0  0
  -12.8706   14.3956  -25.9957 H   0  0  0  0  0  0  0  0  0  0  0  0
  -14.0322   12.5828  -24.8249 H   0  0  0  0  0  0  0  0  0  0  0  0
  -11.8550   11.9228  -23.2113 H   0  0  0  0  0  0  0  0  0  0  0  0
  -13.1116   12.1240  -26.8306 H   0  0  0  0  0  0  0  0  0  0  0  0
   -8.9466    8.2120  -23.7238 H   0  0  0  0  0  0  0  0  0  0  0  0
  -10.3435    8.0891  -28.6768 H   0  0  0  0  0  0  0  0  0  0  0  0
  -11.3353    6.8331  -27.9035 H   0  0  0  0  0  0  0  0  0  0  0  0
  -13.0673   12.9980  -22.2733 H   0  0  0  0  0  0  0  0  0  0  0  0
  -14.5432   15.4958  -25.0025 H   0  0  0  0  0  0  0  0  0  0  0  0
  1  2  1  0
  2  3  1  0
  3  4  1  0
  4  5  1  0
  5  6  1  0
  5  7  1  0
  7  8  1  0
  8  9  2  0
  9 10  1  0
 10 11  2  0
 11 12  1  0
 12 13  2  0
 13 14  1  0
 14 15  2  0
 15 16  1  0
  4 17  1  0
  3 18  1  0
  6  2  1  0
 11  7  1  0
 15 10  1  0
  1 19  1  0
  1 20  1  0
  2 21  1  0
  3 22  1  0
  4 23  1  0
  5 24  1  0
  8 25  1  0
 13 26  1  0
 16 27  1  0
 16 28  1  0
 17 29  1  0
 18 30  1  0
M  RAD  1   1   2
M  END
$$$$

     RDKit          3D

 30 32  0  0  0  0  0  0  0  0999 V2000
  -14.5194   13.6670  -23.8412 C   0  0  0  0  0  3  0  0  0  0  0  0
  -13.3152   14.3559  -24.4163 C   0  0  0  0  0  0  0  0  0  0  0  0
  -12.1888   14.4698  -23.4239 C   0  0  0  0  0  0  0  0  0  0  0  0
  -11.2883   13.3242  -23.8704 C   0  0  0  0  0  0  0  0  0  0  0  0
  -11.7061   13.0612  -25.2844 C   0  0  0  0  0  0  0  0  0  0  0  0
  -12.8287   13.7914  -25.5622 O   0  0  0  0  0  0  0  0  0  0  0  0
  -11.8741   11.6498  -25.5696 N   0  0  0  0  0  0  0  0  0  0  0  0
  -13.0549   11.0659  -25.8270 C   0  0  0  0  0  0  0  0  0  0  0  0
  -12.8440    9.7559  -26.0457 N   0  0  0  0  0  0  0  0  0  0  0  0
  -11.5187    9.5308  -25.9214 C   0  0  0  0  0  0  0  0  0  0  0  0
  -10.9101   10.7288  -25.6209 C   0  0  0  0  0  0  0  0  0  0  0  0
   -9.5638   10.7264  -25.4524 N   0  0  0  0  0  0  0  0  0  0  0  0
   -8.8344    9.5893  -25.5736 C   0  0  0  0  0  0  0  0  0  0  0  0
   -9.4080    8.3999  -25.8681 N   0  0  0  0  0  0  0  0  0  0  0  0
  -10.7516    8.3740  -26.0416 C   0  0  0  0  0  0  0  0  0  0  0  0
  -11.4585    7.1817  -26.3534 N   0  0  0  0  0  0  0  0  0  0  0  0
  -11.4937   12.2394  -23.0297 O   0  0  0  0  0  0  0  0  0  0  0  0
  -11.5686   15.6968  -23.5540 O   0  0  0  0  0  0  0  0  0  0  0  0
  -14.7473   14.1729  -22.8695 H   0  0  0  0  0  0  0  0  0  0  0  0
  -14.3987   12.5826  -23.7144 H   0  0  0  0  0  0  0  0  0  0  0  0
  -13.6411   15.4087  -24.6608 H   0  0  0  0  0  0  0  0  0  0  0  0
  -12.5176   14.2866  -22.3879 H   0  0  0  0  0  0  0  0  0  0  0  0
  -10.2462   13.7193  -23.7951 H   0  0  0  0  0  0  0  0  0  0  0  0
  -10.8569   13.3983  -25.9499 H   0  0  0  0  0  0  0  0  0  0  0  0
  -14.0412   11.5568  -25.8590 H   0  0  0  0  0  0  0  0  0  0  0  0
   -7.7581    9.5846  -25.4394 H   0  0  0  0  0  0  0  0  0  0  0  0
  -12.0392    7.1799  -27.2159 H   0  0  0  0  0  0  0  0  0  0  0  0
  -11.4001    6.3405  -25.7449 H   0  0  0  0  0  0  0  0  0  0  0  0
  -11.8402   12.5851  -22.1821 H   0  0  0  0  0  0  0  0  0  0  0  0
  -11.6365   16.0794  -24.4625 H   0  0  0  0  0  0  0  0  0  0  0  0
  1  2  1  0
  2  3  1  0
  3  4  1  0
  4  5  1  0
  5  6  1  0
  5  7  1  0
  7  8  1  0
  8  9  2  0
  9 10  1  0
 10 11  2  0
 11 12  1  0
 12 13  2  0
 13 14  1  0
 14 15  2  0
 15 16  1  0
  4 17  1  0
  3 18  1  0
  6  2  1  0
 11  7  1  0
 15 10  1  0
  1 19  1  0
  1 20  1  0
  2 21  1  0
  3 22  1  0
  4 23  1  0
  5 24  1  0
  8 25  1  0
 13 26  1  0
 16 27  1  0
 16 28  1  0
 17 29  1  0
 18 30  1  0
M  RAD  1   1   2
M  END
$$$$

     RDKit          3D

 30 32  0  0  0  0  0  0  0  0999 V2000
  -14.2802   15.3847  -24.0562 C   0  0  0  0  0  3  0  0  0  0  0  0
  -13.0927   14.5678  -24.4126 C   0  0  0  0  0  0  0  0  0  0  0  0
  -12.3972   13.9650  -23.1886 C   0  0  0  0  0  0  0  0  0  0  0  0
  -11.5484   12.8900  -23.8610 C   0  0  0  0  0  0  0  0  0  0  0  0
  -12.1939   12.8041  -25.2457 C   0  0  0  0  0  0  0  0  0  0  0  0
  -13.4316   13.3774  -25.0984 O   0  0  0  0  0  0  0  0  0  0  0  0
  -12.2145   11.4283  -25.6224 N   0  0  0  0  0  0  0  0  0  0  0  0
  -13.2620   10.6814  -26.0128 C   0  0  0  0  0  0  0  0  0  0  0  0
  -12.8242    9.4166  -26.2770 N   0  0  0  0  0  0  0  0  0  0  0  0
  -11.5010    9.3866  -26.0477 C   0  0  0  0  0  0  0  0  0  0  0  0
  -11.1264   10.6393  -25.6410 C   0  0  0  0  0  0  0  0  0  0  0  0
   -9.8123   10.8414  -25.3504 N   0  0  0  0  0  0  0  0  0  0  0  0
   -8.8882    9.8703  -25.4477 C   0  0  0  0  0  0  0  0  0  0  0  0
   -9.2377    8.6417  -25.8435 N   0  0  0  0  0  0  0  0  0  0  0  0
  -10.5433    8.4051  -26.1419 C   0  0  0  0  0  0  0  0  0  0  0  0
  -10.9045    7.1101  -26.5578 N   0  0  0  0  0  0  0  0  0  0  0  0
  -10.2410   13.3153  -23.9332 O   0  0  0  0  0  0  0  0  0  0  0  0
  -11.6277   14.8830  -22.5180 O   0  0  0  0  0  0  0  0  0  0  0  0
  -15.1334   14.7883  -23.7337 H   0  0  0  0  0  0  0  0  0  0  0  0
  -13.9799   16.0694  -23.2165 H   0  0  0  0  0  0  0  0  0  0  0  0
  -12.3442   15.1200  -24.9842 H   0  0  0  0  0  0  0  0  0  0  0  0
  -13.2017   13.5298  -22.5727 H   0  0  0  0  0  0  0  0  0  0  0  0
  -11.6258   11.9261  -23.3357 H   0  0  0  0  0  0  0  0  0  0  0  0
  -11.5320   13.3978  -25.9387 H   0  0  0  0  0  0  0  0  0  0  0  0
  -14.2997   10.9757  -26.1192 H   0  0  0  0  0  0  0  0  0  0  0  0
   -7.8387   10.0367  -25.2143 H   0  0  0  0  0  0  0  0  0  0  0  0
  -10.2233    6.3198  -26.5858 H   0  0  0  0  0  0  0  0  0  0  0  0
  -11.8813    6.8857  -26.8587 H   0  0  0  0  0  0  0  0  0  0  0  0
  -10.1542   14.0008  -24.6452 H   0  0  0  0  0  0  0  0  0  0  0  0
  -10.7681   14.4309  -22.2839 H   0  0  0  0  0  0  0  0  0  0  0  0
  1  2  1  0
  2  3  1  0
  3  4  1  0
  4  5  1  0
  5  6  1  0
  5  7  1  0
  7  8  1  0
  8  9  2  0
  9 10  1  0
 10 11  2  0
 11 12  1  0
 12 13  2  0
 13 14  1  0
 14 15  2  0
 15 16  1  0
  4 17  1  0
  3 18  1  0
  6  2  1  0
 11  7  1  0
 15 10  1  0
  1 19  1  0
  1 20  1  0
  2 21  1  0
  3 22  1  0
  4 23  1  0
  5 24  1  0
  8 25  1  0
 13 26  1  0
 16 27  1  0
 16 28  1  0
 17 29  1  0
 18 30  1  0
M  RAD  1   1   2
M  END
$$$$

     RDKit          3D

 30 32  0  0  0  0  0  0  0  0999 V2000
  -14.2466   15.1750  -23.6277 C   0  0  0  0  0  3  0  0  0  0  0  0
  -13.1466   14.5994  -24.4881 C   0  0  0  0  0  0  0  0  0  0  0  0
  -11.8323   14.5421  -23.7728 C   0  0  0  0  0  0  0  0  0  0  0  0
  -11.1326   13.3867  -24.4615 C   0  0  0  0  0  0  0  0  0  0  0  0
  -12.1640   12.9203  -25.4343 C   0  0  0  0  0  0  0  0  0  0  0  0
  -13.3849   13.2641  -24.8088 O   0  0  0  0  0  0  0  0  0  0  0  0
  -12.1473   11.5275  -25.7132 N   0  0  0  0  0  0  0  0  0  0  0  0
  -13.2238   10.7993  -26.0603 C   0  0  0  0  0  0  0  0  0  0  0  0
  -12.8292    9.5228  -26.2456 N   0  0  0  0  0  0  0  0  0  0  0  0
  -11.5247    9.4083  -26.0269 C   0  0  0  0  0  0  0  0  0  0  0  0
  -11.0896   10.6951  -25.6857 C   0  0  0  0  0  0  0  0  0  0  0  0
   -9.8016   10.9043  -25.4045 N   0  0  0  0  0  0  0  0  0  0  0  0
   -8.8732    9.9306  -25.4295 C   0  0  0  0  0  0  0  0  0  0  0  0
   -9.2649    8.6790  -25.7556 N   0  0  0  0  0  0  0  0  0  0  0  0
  -10.5557    8.4270  -26.0460 C   0  0  0  0  0  0  0  0  0  0  0  0
  -10.9874    7.1095  -26.3928 N   0  0  0  0  0  0  0  0  0  0  0  0
  -10.8285   12.4551  -23.4773 O   0  0  0  0  0  0  0  0  0  0  0  0
  -12.0943   14.2621  -22.4254 O   0  0  0  0  0  0  0  0  0  0  0  0
  -14.7865   14.3938  -23.0531 H   0  0  0  0  0  0  0  0  0  0  0  0
  -13.8335   15.9386  -22.9291 H   0  0  0  0  0  0  0  0  0  0  0  0
  -13.0002   15.1656  -25.4269 H   0  0  0  0  0  0  0  0  0  0  0  0
  -11.2453   15.4818  -23.8669 H   0  0  0  0  0  0  0  0  0  0  0  0
  -10.2211   13.7929  -24.9537 H   0  0  0  0  0  0  0  0  0  0  0  0
  -12.1016   13.5661  -26.3360 H   0  0  0  0  0  0  0  0  0  0  0  0
  -14.2397   11.1121  -26.1853 H   0  0  0  0  0  0  0  0  0  0  0  0
   -7.8229   10.1156  -25.1973 H   0  0  0  0  0  0  0  0  0  0  0  0
  -11.8015    6.6909  -25.8763 H   0  0  0  0  0  0  0  0  0  0  0  0
  -10.5086    6.5847  -27.1334 H   0  0  0  0  0  0  0  0  0  0  0  0
  -10.0358   12.8378  -22.9832 H   0  0  0  0  0  0  0  0  0  0  0  0
  -12.1559   13.2831  -22.3546 H   0  0  0  0  0  0  0  0  0  0  0  0
  1  2  1  0
  2  3  1  0
  3  4  1  0
  4  5  1  0
  5  6  1  0
  5  7  1  0
  7  8  1  0
  8  9  2  0
  9 10  1  0
 10 11  2  0
 11 12  1  0
 12 13  2  0
 13 14  1  0
 14 15  2  0
 15 16  1  0
  4 17  1  0
  3 18  1  0
  6  2  1  0
 11  7  1  0
 15 10  1  0
  1 19  1  0
  1 20  1  0
  2 21  1  0
  3 22  1  0
  4 23  1  0
  5 24  1  0
  8 25  1  0
 13 26  1  0
 16 27  1  0
 16 28  1  0
 17 29  1  0
 18 30  1  0
M  RAD  1   1   2
M  END
$$$$

     RDKit          3D

 30 32  0  0  0  0  0  0  0  0999 V2000
  -13.3230   13.5109  -21.9144 C   0  0  0  0  0  3  0  0  0  0  0  0
  -12.4202   13.7199  -23.0719 C   0  0  0  0  0  0  0  0  0  0  0  0
  -13.1554   14.2242  -24.3179 C   0  0  0  0  0  0  0  0  0  0  0  0
  -12.0515   14.0058  -25.3618 C   0  0  0  0  0  0  0  0  0  0  0  0
  -11.2858   12.8675  -24.7702 C   0  0  0  0  0  0  0  0  0  0  0  0
  -11.8842   12.5190  -23.5750 O   0  0  0  0  0  0  0  0  0  0  0  0
  -11.1976   11.7253  -25.6697 N   0  0  0  0  0  0  0  0  0  0  0  0
  -11.2037   11.7335  -27.0162 C   0  0  0  0  0  0  0  0  0  0  0  0
  -11.1038   10.4688  -27.4690 N   0  0  0  0  0  0  0  0  0  0  0  0
  -11.0359    9.6795  -26.3764 C   0  0  0  0  0  0  0  0  0  0  0  0
  -11.0930   10.4464  -25.2408 C   0  0  0  0  0  0  0  0  0  0  0  0
  -11.0414    9.8651  -24.0141 N   0  0  0  0  0  0  0  0  0  0  0  0
  -10.9340    8.5319  -23.9626 C   0  0  0  0  0  0  0  0  0  0  0  0
  -10.8771    7.7694  -25.0704 N   0  0  0  0  0  0  0  0  0  0  0  0
  -10.9258    8.3130  -26.3104 C   0  0  0  0  0  0  0  0  0  0  0  0
  -10.8683    7.5388  -27.4843 N   0  0  0  0  0  0  0  0  0  0  0  0
  -11.2393   15.1384  -25.4460 O   0  0  0  0  0  0  0  0  0  0  0  0
  -13.4870   15.5504  -24.1849 O   0  0  0  0  0  0  0  0  0  0  0  0
  -14.2765   13.0278  -22.1368 H   0  0  0  0  0  0  0  0  0  0  0  0
  -13.4030   14.4462  -21.3281 H   0  0  0  0  0  0  0  0  0  0  0  0
  -11.6063   14.4035  -22.7902 H   0  0  0  0  0  0  0  0  0  0  0  0
  -14.0005   13.5538  -24.4910 H   0  0  0  0  0  0  0  0  0  0  0  0
  -12.5284   13.7955  -26.3195 H   0  0  0  0  0  0  0  0  0  0  0  0
  -10.2437   13.1982  -24.5256 H   0  0  0  0  0  0  0  0  0  0  0  0
  -11.2756   12.5960  -27.6645 H   0  0  0  0  0  0  0  0  0  0  0  0
  -10.8877    8.0038  -23.0130 H   0  0  0  0  0  0  0  0  0  0  0  0
  -11.1086    7.9618  -28.3923 H   0  0  0  0  0  0  0  0  0  0  0  0
  -10.5856    6.5486  -27.4340 H   0  0  0  0  0  0  0  0  0  0  0  0
  -10.7973   15.2911  -24.5791 H   0  0  0  0  0  0  0  0  0  0  0  0
  -13.8994   15.8625  -25.0055 H   0  0  0  0  0  0  0  0  0  0  0  0
  1  2  1  0
  2  3  1  0
  3  4  1  0
  4  5  1  0
  5  6  1  0
  5  7  1  0
  7  8  1  0
  8  9  2  0
  9 10  1  0
 10 11  2  0
 11 12  1  0
 12 13  2  0
 13 14  1  0
 14 15  2  0
 15 16  1  0
  4 17  1  0
  3 18  1  0
  6  2  1  0
 11  7  1  0
 15 10  1  0
  1 19  1  0
  1 20  1  0
  2 21  1  0
  3 22  1  0
  4 23  1  0
  5 24  1  0
  8 25  1  0
 13 26  1  0
 16 27  1  0
 16 28  1  0
 17 29  1  0
 18 30  1  0
M  RAD  1   1   2
M  END
$$$$

     RDKit          3D

 30 32  0  0  0  0  0  0  0  0999 V2000
  -12.2674   14.2996  -22.1438 C   0  0  0  0  0  3  0  0  0  0  0  0
  -12.8208   13.3282  -23.1487 C   0  0  0  0  0  0  0  0  0  0  0  0
  -13.3541   13.9979  -24.3867 C   0  0  0  0  0  0  0  0  0  0  0  0
  -12.1325   14.0023  -25.2815 C   0  0  0  0  0  0  0  0  0  0  0  0
  -11.3032   12.8983  -24.7350 C   0  0  0  0  0  0  0  0  0  0  0  0
  -11.8103   12.4812  -23.5418 O   0  0  0  0  0  0  0  0  0  0  0  0
  -11.2154   11.7621  -25.6458 N   0  0  0  0  0  0  0  0  0  0  0  0
  -11.2459   11.7533  -26.9915 C   0  0  0  0  0  0  0  0  0  0  0  0
  -11.1355   10.4898  -27.4545 N   0  0  0  0  0  0  0  0  0  0  0  0
  -11.0322    9.6655  -26.4133 C   0  0  0  0  0  0  0  0  0  0  0  0
  -11.0832   10.4694  -25.2907 C   0  0  0  0  0  0  0  0  0  0  0  0
  -10.9975    9.8706  -24.0761 N   0  0  0  0  0  0  0  0  0  0  0  0
  -10.8674    8.5350  -23.9888 C   0  0  0  0  0  0  0  0  0  0  0  0
  -10.8196    7.7679  -25.0969 N   0  0  0  0  0  0  0  0  0  0  0  0
  -10.8987    8.2904  -26.3437 C   0  0  0  0  0  0  0  0  0  0  0  0
  -10.8450    7.4533  -27.4845 N   0  0  0  0  0  0  0  0  0  0  0  0
  -11.5181   15.2439  -25.1227 O   0  0  0  0  0  0  0  0  0  0  0  0
  -13.7804   15.2992  -24.1100 O   0  0  0  0  0  0  0  0  0  0  0  0
  -13.0059   15.0059  -21.7457 H   0  0  0  0  0  0  0  0  0  0  0  0
  -11.3010   14.7313  -22.4149 H   0  0  0  0  0  0  0  0  0  0  0  0
  -13.6059   12.7151  -22.6350 H   0  0  0  0  0  0  0  0  0  0  0  0
  -14.1640   13.3627  -24.7883 H   0  0  0  0  0  0  0  0  0  0  0  0
  -12.3917   13.9113  -26.3494 H   0  0  0  0  0  0  0  0  0  0  0  0
  -10.2750   13.3199  -24.5339 H   0  0  0  0  0  0  0  0  0  0  0  0
  -11.3476   12.6697  -27.5863 H   0  0  0  0  0  0  0  0  0  0  0  0
  -10.8014    8.0904  -22.9843 H   0  0  0  0  0  0  0  0  0  0  0  0
  -11.6021    7.4895  -28.1915 H   0  0  0  0  0  0  0  0  0  0  0  0
  -10.0639    6.7916  -27.6463 H   0  0  0  0  0  0  0  0  0  0  0  0
  -10.5695   15.2369  -25.4094 H   0  0  0  0  0  0  0  0  0  0  0  0
  -14.3682   15.6417  -24.8218 H   0  0  0  0  0  0  0  0  0  0  0  0
  1  2  1  0
  2  3  1  0
  3  4  1  0
  4  5  1  0
  5  6  1  0
  5  7  1  0
  7  8  1  0
  8  9  2  0
  9 10  1  0
 10 11  2  0
 11 12  1  0
 12 13  2  0
 13 14  1  0
 14 15  2  0
 15 16  1  0
  4 17  1  0
  3 18  1  0
  6  2  1  0
 11  7  1  0
 15 10  1  0
  1 19  1  0
  1 20  1  0
  2 21  1  0
  3 22  1  0
  4 23  1  0
  5 24  1  0
  8 25  1  0
 13 26  1  0
 16 27  1  0
 16 28  1  0
 17 29  1  0
 18 30  1  0
M  RAD  1   1   2
M  END
$$$$

     RDKit          3D

 30 32  0  0  0  0  0  0  0  0999 V2000
  -13.4256   15.3661  -25.3707 C   0  0  0  0  0  3  0  0  0  0  0  0
  -13.3627   14.3376  -24.2495 C   0  0  0  0  0  0  0  0  0  0  0  0
  -12.0543   14.4062  -23.5200 C   0  0  0  0  0  0  0  0  0  0  0  0
  -11.4115   13.0817  -23.9554 C   0  0  0  0  0  0  0  0  0  0  0  0
  -12.6567   12.2267  -24.0665 C   0  0  0  0  0  0  0  0  0  0  0  0
  -13.5059   13.0877  -24.7839 O   0  0  0  0  0  0  0  0  0  0  0  0
  -12.4071   11.0081  -24.8003 N   0  0  0  0  0  0  0  0  0  0  0  0
  -13.3460   10.1001  -25.0712 C   0  0  0  0  0  0  0  0  0  0  0  0
  -12.8058    9.0682  -25.7732 N   0  0  0  0  0  0  0  0  0  0  0  0
  -11.4973    9.3830  -25.9202 C   0  0  0  0  0  0  0  0  0  0  0  0
  -11.2544   10.5798  -25.3192 C   0  0  0  0  0  0  0  0  0  0  0  0
  -10.0080   11.0980  -25.3388 N   0  0  0  0  0  0  0  0  0  0  0  0
   -9.0330   10.4085  -25.9583 C   0  0  0  0  0  0  0  0  0  0  0  0
   -9.2684    9.2234  -26.5547 N   0  0  0  0  0  0  0  0  0  0  0  0
  -10.4968    8.6580  -26.5656 C   0  0  0  0  0  0  0  0  0  0  0  0
  -10.7582    7.4183  -27.1857 N   0  0  0  0  0  0  0  0  0  0  0  0
  -10.5549   12.6660  -22.9738 O   0  0  0  0  0  0  0  0  0  0  0  0
  -11.2801   15.4906  -23.8488 O   0  0  0  0  0  0  0  0  0  0  0  0
  -13.8759   16.2862  -24.9399 H   0  0  0  0  0  0  0  0  0  0  0  0
  -14.1148   15.0114  -26.1639 H   0  0  0  0  0  0  0  0  0  0  0  0
  -14.2249   14.5419  -23.5502 H   0  0  0  0  0  0  0  0  0  0  0  0
  -12.2823   14.3439  -22.4207 H   0  0  0  0  0  0  0  0  0  0  0  0
  -10.9426   13.2508  -24.9435 H   0  0  0  0  0  0  0  0  0  0  0  0
  -13.0652   12.0648  -23.0605 H   0  0  0  0  0  0  0  0  0  0  0  0
  -14.4023   10.1038  -24.8102 H   0  0  0  0  0  0  0  0  0  0  0  0
   -7.9994   10.7694  -26.0126 H   0  0  0  0  0  0  0  0  0  0  0  0
  -11.4886    7.3255  -27.9081 H   0  0  0  0  0  0  0  0  0  0  0  0
  -10.2098    6.5875  -26.9132 H   0  0  0  0  0  0  0  0  0  0  0  0
  -10.1642   13.4358  -22.4884 H   0  0  0  0  0  0  0  0  0  0  0  0
  -11.1820   16.1127  -23.0591 H   0  0  0  0  0  0  0  0  0  0  0  0
  1  2  1  0
  2  3  1  0
  3  4  1  0
  4  5  1  0
  5  6  1  0
  5  7  1  0
  7  8  1  0
  8  9  2  0
  9 10  1  0
 10 11  2  0
 11 12  1  0
 12 13  2  0
 13 14  1  0
 14 15  2  0
 15 16  1  0
  4 17  1  0
  3 18  1  0
  6  2  1  0
 11  7  1  0
 15 10  1  0
  1 19  1  0
  1 20  1  0
  2 21  1  0
  3 22  1  0
  4 23  1  0
  5 24  1  0
  8 25  1  0
 13 26  1  0
 16 27  1  0
 16 28  1  0
 17 29  1  0
 18 30  1  0
M  RAD  1   1   2
M  END
$$$$

     RDKit          3D

 30 32  0  0  0  0  0  0  0  0999 V2000
  -13.0823   13.7060  -21.8160 C   0  0  0  0  0  3  0  0  0  0  0  0
  -13.2749   13.7676  -23.3129 C   0  0  0  0  0  0  0  0  0  0  0  0
  -12.3916   14.8041  -23.9607 C   0  0  0  0  0  0  0  0  0  0  0  0
  -11.9402   14.0232  -25.1991 C   0  0  0  0  0  0  0  0  0  0  0  0
  -11.7873   12.6493  -24.5514 C   0  0  0  0  0  0  0  0  0  0  0  0
  -12.9580   12.5444  -23.8385 O   0  0  0  0  0  0  0  0  0  0  0  0
  -11.6154   11.6163  -25.5308 N   0  0  0  0  0  0  0  0  0  0  0  0
  -11.8516   11.6184  -26.8550 C   0  0  0  0  0  0  0  0  0  0  0  0
  -11.5457   10.4200  -27.3925 N   0  0  0  0  0  0  0  0  0  0  0  0
  -11.1044    9.6338  -26.3919 C   0  0  0  0  0  0  0  0  0  0  0  0
  -11.1502   10.3840  -25.2365 C   0  0  0  0  0  0  0  0  0  0  0  0
  -10.7467    9.7875  -24.0909 N   0  0  0  0  0  0  0  0  0  0  0  0
  -10.3122    8.5153  -24.0446 C   0  0  0  0  0  0  0  0  0  0  0  0
  -10.2605    7.7685  -25.1606 N   0  0  0  0  0  0  0  0  0  0  0  0
  -10.6524    8.3200  -26.3253 C   0  0  0  0  0  0  0  0  0  0  0  0
  -10.6218    7.5909  -27.5266 N   0  0  0  0  0  0  0  0  0  0  0  0
  -10.7741   14.5003  -25.7257 O   0  0  0  0  0  0  0  0  0  0  0  0
  -13.0576   15.9586  -24.2969 O   0  0  0  0  0  0  0  0  0  0  0  0
  -13.9726   13.1362  -21.4183 H   0  0  0  0  0  0  0  0  0  0  0  0
  -12.2121   13.0216  -21.6430 H   0  0  0  0  0  0  0  0  0  0  0  0
  -14.3579   14.0115  -23.4753 H   0  0  0  0  0  0  0  0  0  0  0  0
  -11.4750   15.0103  -23.3364 H   0  0  0  0  0  0  0  0  0  0  0  0
  -12.8061   14.0430  -25.8934 H   0  0  0  0  0  0  0  0  0  0  0  0
  -10.8923   12.7343  -23.8889 H   0  0  0  0  0  0  0  0  0  0  0  0
  -12.2382   12.4814  -27.4033 H   0  0  0  0  0  0  0  0  0  0  0  0
   -9.9940    8.0717  -23.0905 H   0  0  0  0  0  0  0  0  0  0  0  0
   -9.8003    7.6711  -28.1473 H   0  0  0  0  0  0  0  0  0  0  0  0
  -11.4029    6.9806  -27.7960 H   0  0  0  0  0  0  0  0  0  0  0  0
  -10.9343   14.6566  -26.7086 H   0  0  0  0  0  0  0  0  0  0  0  0
  -12.3975   16.6459  -24.5175 H   0  0  0  0  0  0  0  0  0  0  0  0
  1  2  1  0
  2  3  1  0
  3  4  1  0
  4  5  1  0
  5  6  1  0
  5  7  1  0
  7  8  1  0
  8  9  2  0
  9 10  1  0
 10 11  2  0
 11 12  1  0
 12 13  2  0
 13 14  1  0
 14 15  2  0
 15 16  1  0
  4 17  1  0
  3 18  1  0
  6  2  1  0
 11  7  1  0
 15 10  1  0
  1 19  1  0
  1 20  1  0
  2 21  1  0
  3 22  1  0
  4 23  1  0
  5 24  1  0
  8 25  1  0
 13 26  1  0
 16 27  1  0
 16 28  1  0
 17 29  1  0
 18 30  1  0
M  RAD  1   1   2
M  END
$$$$

     RDKit          3D

 30 32  0  0  0  0  0  0  0  0999 V2000
  -14.3262   15.2065  -24.2098 C   0  0  0  0  0  3  0  0  0  0  0  0
  -13.2783   14.1984  -23.7202 C   0  0  0  0  0  0  0  0  0  0  0  0
  -11.8787   14.6771  -24.0503 C   0  0  0  0  0  0  0  0  0  0  0  0
  -11.2459   13.3478  -24.4456 C   0  0  0  0  0  0  0  0  0  0  0  0
  -12.4197   12.7714  -25.2139 C   0  0  0  0  0  0  0  0  0  0  0  0
  -13.4644   12.9887  -24.3306 O   0  0  0  0  0  0  0  0  0  0  0  0
  -12.2452   11.4011  -25.5680 N   0  0  0  0  0  0  0  0  0  0  0  0
  -13.2568   10.5788  -25.9054 C   0  0  0  0  0  0  0  0  0  0  0  0
  -12.8029    9.3613  -26.1864 N   0  0  0  0  0  0  0  0  0  0  0  0
  -11.4736    9.3834  -26.0316 C   0  0  0  0  0  0  0  0  0  0  0  0
  -11.1364   10.6557  -25.6470 C   0  0  0  0  0  0  0  0  0  0  0  0
   -9.8551   10.9333  -25.4279 N   0  0  0  0  0  0  0  0  0  0  0  0
   -8.9147    9.9815  -25.5820 C   0  0  0  0  0  0  0  0  0  0  0  0
   -9.2015    8.7370  -25.9534 N   0  0  0  0  0  0  0  0  0  0  0  0
  -10.5008    8.4054  -26.1893 C   0  0  0  0  0  0  0  0  0  0  0  0
  -10.8720    7.0913  -26.5891 N   0  0  0  0  0  0  0  0  0  0  0  0
  -11.0041   12.6688  -23.2716 O   0  0  0  0  0  0  0  0  0  0  0  0
  -11.2508   15.2203  -22.9340 O   0  0  0  0  0  0  0  0  0  0  0  0
  -15.2942   14.6260  -24.2287 H   0  0  0  0  0  0  0  0  0  0  0  0
  -14.4679   15.9572  -23.3802 H   0  0  0  0  0  0  0  0  0  0  0  0
  -13.3703   14.0899  -22.5999 H   0  0  0  0  0  0  0  0  0  0  0  0
  -11.8606   15.3483  -24.9215 H   0  0  0  0  0  0  0  0  0  0  0  0
  -10.3570   13.4886  -25.0819 H   0  0  0  0  0  0  0  0  0  0  0  0
  -12.5253   13.3968  -26.1368 H   0  0  0  0  0  0  0  0  0  0  0  0
  -14.3234   10.8454  -25.9521 H   0  0  0  0  0  0  0  0  0  0  0  0
   -7.8721   10.2274  -25.3982 H   0  0  0  0  0  0  0  0  0  0  0  0
  -10.8270    6.7534  -27.5760 H   0  0  0  0  0  0  0  0  0  0  0  0
  -11.2082    6.4173  -25.8750 H   0  0  0  0  0  0  0  0  0  0  0  0
  -10.0513   12.7512  -23.0198 H   0  0  0  0  0  0  0  0  0  0  0  0
  -10.9293   16.1347  -23.2024 H   0  0  0  0  0  0  0  0  0  0  0  0
  1  2  1  0
  2  3  1  0
  3  4  1  0
  4  5  1  0
  5  6  1  0
  5  7  1  0
  7  8  1  0
  8  9  2  0
  9 10  1  0
 10 11  2  0
 11 12  1  0
 12 13  2  0
 13 14  1  0
 14 15  2  0
 15 16  1  0
  4 17  1  0
  3 18  1  0
  6  2  1  0
 11  7  1  0
 15 10  1  0
  1 19  1  0
  1 20  1  0
  2 21  1  0
  3 22  1  0
  4 23  1  0
  5 24  1  0
  8 25  1  0
 13 26  1  0
 16 27  1  0
 16 28  1  0
 17 29  1  0
 18 30  1  0
M  RAD  1   1   2
M  END
$$$$

     RDKit          3D

 30 32  0  0  0  0  0  0  0  0999 V2000
  -14.2677   14.4333  -23.0286 C   0  0  0  0  0  3  0  0  0  0  0  0
  -12.9863   13.6356  -22.9765 C   0  0  0  0  0  0  0  0  0  0  0  0
  -11.7979   14.4252  -23.4449 C   0  0  0  0  0  0  0  0  0  0  0  0
  -11.1411   13.4050  -24.3872 C   0  0  0  0  0  0  0  0  0  0  0  0
  -12.3932   12.7512  -24.9351 C   0  0  0  0  0  0  0  0  0  0  0  0
  -13.1286   12.5378  -23.7791 O   0  0  0  0  0  0  0  0  0  0  0  0
  -12.1225   11.5317  -25.6481 N   0  0  0  0  0  0  0  0  0  0  0  0
  -12.7589   11.1806  -26.7790 C   0  0  0  0  0  0  0  0  0  0  0  0
  -12.3003    9.9972  -27.2170 N   0  0  0  0  0  0  0  0  0  0  0  0
  -11.3631    9.5916  -26.3564 C   0  0  0  0  0  0  0  0  0  0  0  0
  -11.2597   10.5476  -25.3884 C   0  0  0  0  0  0  0  0  0  0  0  0
  -10.3834   10.4111  -24.3720 N   0  0  0  0  0  0  0  0  0  0  0  0
   -9.6029    9.3004  -24.3294 C   0  0  0  0  0  0  0  0  0  0  0  0
   -9.7020    8.3556  -25.2820 N   0  0  0  0  0  0  0  0  0  0  0  0
  -10.5588    8.4656  -26.2963 C   0  0  0  0  0  0  0  0  0  0  0  0
  -10.6998    7.4941  -27.3265 N   0  0  0  0  0  0  0  0  0  0  0  0
  -10.4922   14.0434  -25.4388 O   0  0  0  0  0  0  0  0  0  0  0  0
  -12.1687   15.5009  -24.2707 O   0  0  0  0  0  0  0  0  0  0  0  0
  -14.1297   15.4910  -22.7839 H   0  0  0  0  0  0  0  0  0  0  0  0
  -14.8260   14.2668  -23.9716 H   0  0  0  0  0  0  0  0  0  0  0  0
  -12.8223   13.3629  -21.9117 H   0  0  0  0  0  0  0  0  0  0  0  0
  -11.1144   14.7311  -22.6486 H   0  0  0  0  0  0  0  0  0  0  0  0
  -10.4949   12.7257  -23.8319 H   0  0  0  0  0  0  0  0  0  0  0  0
  -12.9219   13.4784  -25.5507 H   0  0  0  0  0  0  0  0  0  0  0  0
  -13.5349   11.7466  -27.2908 H   0  0  0  0  0  0  0  0  0  0  0  0
   -8.8805    9.1291  -23.5427 H   0  0  0  0  0  0  0  0  0  0  0  0
  -11.5730    6.9195  -27.4174 H   0  0  0  0  0  0  0  0  0  0  0  0
   -9.9475    7.3217  -28.0196 H   0  0  0  0  0  0  0  0  0  0  0  0
   -9.5269   14.1798  -25.2483 H   0  0  0  0  0  0  0  0  0  0  0  0
  -13.1081   15.4227  -24.5652 H   0  0  0  0  0  0  0  0  0  0  0  0
  1  2  1  0
  2  3  1  0
  3  4  1  0
  4  5  1  0
  5  6  1  0
  5  7  1  0
  7  8  1  0
  8  9  2  0
  9 10  1  0
 10 11  2  0
 11 12  1  0
 12 13  2  0
 13 14  1  0
 14 15  2  0
 15 16  1  0
  4 17  1  0
  3 18  1  0
  6  2  1  0
 11  7  1  0
 15 10  1  0
  1 19  1  0
  1 20  1  0
  2 21  1  0
  3 22  1  0
  4 23  1  0
  5 24  1  0
  8 25  1  0
 13 26  1  0
 16 27  1  0
 16 28  1  0
 17 29  1  0
 18 30  1  0
M  RAD  1   1   2
M  END
$$$$

     RDKit          3D

 30 32  0  0  0  0  0  0  0  0999 V2000
  -14.1875   15.0314  -24.7350 C   0  0  0  0  0  3  0  0  0  0  0  0
  -12.7184   14.6369  -24.8892 C   0  0  0  0  0  0  0  0  0  0  0  0
  -12.0416   14.4577  -23.5710 C   0  0  0  0  0  0  0  0  0  0  0  0
  -11.5120   13.0231  -23.6958 C   0  0  0  0  0  0  0  0  0  0  0  0
  -12.6473   12.4690  -24.5645 C   0  0  0  0  0  0  0  0  0  0  0  0
  -12.6870   13.4332  -25.5664 O   0  0  0  0  0  0  0  0  0  0  0  0
  -12.4065   11.1518  -25.0240 N   0  0  0  0  0  0  0  0  0  0  0  0
  -13.3215   10.1664  -25.0511 C   0  0  0  0  0  0  0  0  0  0  0  0
  -12.7719    9.0559  -25.5390 N   0  0  0  0  0  0  0  0  0  0  0  0
  -11.4923    9.3299  -25.8281 C   0  0  0  0  0  0  0  0  0  0  0  0
  -11.2504   10.6615  -25.5037 C   0  0  0  0  0  0  0  0  0  0  0  0
  -10.0177   11.1906  -25.7038 N   0  0  0  0  0  0  0  0  0  0  0  0
   -9.0523   10.3970  -26.2181 C   0  0  0  0  0  0  0  0  0  0  0  0
   -9.2916    9.1117  -26.5296 N   0  0  0  0  0  0  0  0  0  0  0  0
  -10.5006    8.5483  -26.3465 C   0  0  0  0  0  0  0  0  0  0  0  0
  -10.7683    7.1920  -26.6708 N   0  0  0  0  0  0  0  0  0  0  0  0
  -11.4401   12.3903  -22.4762 O   0  0  0  0  0  0  0  0  0  0  0  0
  -11.0199   15.3614  -23.3432 O   0  0  0  0  0  0  0  0  0  0  0  0
  -14.7944   14.5059  -25.5299 H   0  0  0  0  0  0  0  0  0  0  0  0
  -14.5208   14.6875  -23.7208 H   0  0  0  0  0  0  0  0  0  0  0  0
  -12.1757   15.4562  -25.4413 H   0  0  0  0  0  0  0  0  0  0  0  0
  -12.8019   14.4419  -22.7674 H   0  0  0  0  0  0  0  0  0  0  0  0
  -10.5625   13.0085  -24.2701 H   0  0  0  0  0  0  0  0  0  0  0  0
  -13.5459   12.4987  -23.9155 H   0  0  0  0  0  0  0  0  0  0  0  0
  -14.3469   10.2725  -24.7230 H   0  0  0  0  0  0  0  0  0  0  0  0
   -8.0396   10.7612  -26.4033 H   0  0  0  0  0  0  0  0  0  0  0  0
   -9.9965    6.5053  -26.6439 H   0  0  0  0  0  0  0  0  0  0  0  0
  -11.7282    6.9238  -26.9259 H   0  0  0  0  0  0  0  0  0  0  0  0
  -10.4712   12.2006  -22.3011 H   0  0  0  0  0  0  0  0  0  0  0  0
  -11.1252   15.6883  -22.4128 H   0  0  0  0  0  0  0  0  0  0  0  0
  1  2  1  0
  2  3  1  0
  3  4  1  0
  4  5  1  0
  5  6  1  0
  5  7  1  0
  7  8  1  0
  8  9  2  0
  9 10  1  0
 10 11  2  0
 11 12  1  0
 12 13  2  0
 13 14  1  0
 14 15  2  0
 15 16  1  0
  4 17  1  0
  3 18  1  0
  6  2  1  0
 11  7  1  0
 15 10  1  0
  1 19  1  0
  1 20  1  0
  2 21  1  0
  3 22  1  0
  4 23  1  0
  5 24  1  0
  8 25  1  0
 13 26  1  0
 16 27  1  0
 16 28  1  0
 17 29  1  0
 18 30  1  0
M  RAD  1   1   2
M  END
$$$$

     RDKit          3D

 30 32  0  0  0  0  0  0  0  0999 V2000
  -14.2473   13.9427  -22.5355 C   0  0  0  0  0  3  0  0  0  0  0  0
  -13.3897   13.5782  -23.7108 C   0  0  0  0  0  0  0  0  0  0  0  0
  -12.4459   14.7504  -24.0136 C   0  0  0  0  0  0  0  0  0  0  0  0
  -11.4860   14.0267  -24.9684 C   0  0  0  0  0  0  0  0  0  0  0  0
  -11.4830   12.6412  -24.3774 C   0  0  0  0  0  0  0  0  0  0  0  0
  -12.4973   12.5664  -23.4566 O   0  0  0  0  0  0  0  0  0  0  0  0
  -11.5606   11.6035  -25.3782 N   0  0  0  0  0  0  0  0  0  0  0  0
  -12.1263   11.6037  -26.5869 C   0  0  0  0  0  0  0  0  0  0  0  0
  -11.9612   10.4135  -27.1918 N   0  0  0  0  0  0  0  0  0  0  0  0
  -11.2729    9.6101  -26.3677 C   0  0  0  0  0  0  0  0  0  0  0  0
  -11.0233   10.3568  -25.2334 C   0  0  0  0  0  0  0  0  0  0  0  0
  -10.3465    9.8238  -24.2162 N   0  0  0  0  0  0  0  0  0  0  0  0
   -9.9100    8.5711  -24.2914 C   0  0  0  0  0  0  0  0  0  0  0  0
  -10.1417    7.8305  -25.3825 N   0  0  0  0  0  0  0  0  0  0  0  0
  -10.8152    8.3122  -26.4341 C   0  0  0  0  0  0  0  0  0  0  0  0
  -11.0598    7.5235  -27.5915 N   0  0  0  0  0  0  0  0  0  0  0  0
  -10.2647   14.6604  -24.8928 O   0  0  0  0  0  0  0  0  0  0  0  0
  -13.0955   15.7931  -24.6273 O   0  0  0  0  0  0  0  0  0  0  0  0
  -14.9098   14.7820  -22.8663 H   0  0  0  0  0  0  0  0  0  0  0  0
  -14.8628   13.0803  -22.2601 H   0  0  0  0  0  0  0  0  0  0  0  0
  -14.0299   13.3914  -24.6004 H   0  0  0  0  0  0  0  0  0  0  0  0
  -11.9250   15.0045  -23.0851 H   0  0  0  0  0  0  0  0  0  0  0  0
  -11.9138   14.0578  -25.9872 H   0  0  0  0  0  0  0  0  0  0  0  0
  -10.4800   12.5206  -23.8763 H   0  0  0  0  0  0  0  0  0  0  0  0
  -12.6533   12.4627  -27.0217 H   0  0  0  0  0  0  0  0  0  0  0  0
   -9.3607    8.1852  -23.4283 H   0  0  0  0  0  0  0  0  0  0  0  0
  -11.1012    7.9345  -28.5474 H   0  0  0  0  0  0  0  0  0  0  0  0
  -11.2094    6.4756  -27.5088 H   0  0  0  0  0  0  0  0  0  0  0  0
   -9.8917   14.6874  -25.8141 H   0  0  0  0  0  0  0  0  0  0  0  0
  -12.5536   16.1698  -25.3880 H   0  0  0  0  0  0  0  0  0  0  0  0
  1  2  1  0
  2  3  1  0
  3  4  1  0
  4  5  1  0
  5  6  1  0
  5  7  1  0
  7  8  1  0
  8  9  2  0
  9 10  1  0
 10 11  2  0
 11 12  1  0
 12 13  2  0
 13 14  1  0
 14 15  2  0
 15 16  1  0
  4 17  1  0
  3 18  1  0
  6  2  1  0
 11  7  1  0
 15 10  1  0
  1 19  1  0
  1 20  1  0
  2 21  1  0
  3 22  1  0
  4 23  1  0
  5 24  1  0
  8 25  1  0
 13 26  1  0
 16 27  1  0
 16 28  1  0
 17 29  1  0
 18 30  1  0
M  RAD  1   1   2
M  END
$$$$

     RDKit          3D

 30 32  0  0  0  0  0  0  0  0999 V2000
  -14.3410   14.3456  -23.1890 C   0  0  0  0  0  3  0  0  0  0  0  0
  -12.9373   13.7813  -23.1300 C   0  0  0  0  0  0  0  0  0  0  0  0
  -11.9607   14.6020  -23.9365 C   0  0  0  0  0  0  0  0  0  0  0  0
  -11.8127   13.7833  -25.2048 C   0  0  0  0  0  0  0  0  0  0  0  0
  -12.8052   12.6755  -25.0384 C   0  0  0  0  0  0  0  0  0  0  0  0
  -12.8651   12.4944  -23.6431 O   0  0  0  0  0  0  0  0  0  0  0  0
  -12.4468   11.4674  -25.7150 N   0  0  0  0  0  0  0  0  0  0  0  0
  -13.1004   10.9537  -26.7705 C   0  0  0  0  0  0  0  0  0  0  0  0
  -12.4524    9.8045  -27.1215 N   0  0  0  0  0  0  0  0  0  0  0  0
  -11.4125    9.6158  -26.2898 C   0  0  0  0  0  0  0  0  0  0  0  0
  -11.4086   10.6766  -25.3923 C   0  0  0  0  0  0  0  0  0  0  0  0
  -10.4411   10.7102  -24.4425 N   0  0  0  0  0  0  0  0  0  0  0  0
   -9.5012    9.7635  -24.3448 C   0  0  0  0  0  0  0  0  0  0  0  0
   -9.5007    8.7352  -25.2107 N   0  0  0  0  0  0  0  0  0  0  0  0
  -10.4466    8.6408  -26.1913 C   0  0  0  0  0  0  0  0  0  0  0  0
  -10.4282    7.5517  -27.0914 N   0  0  0  0  0  0  0  0  0  0  0  0
  -10.5035   13.3549  -25.3102 O   0  0  0  0  0  0  0  0  0  0  0  0
  -10.7630   14.6516  -23.2343 O   0  0  0  0  0  0  0  0  0  0  0  0
  -14.6361   14.6143  -24.2209 H   0  0  0  0  0  0  0  0  0  0  0  0
  -15.0192   13.5941  -22.7360 H   0  0  0  0  0  0  0  0  0  0  0  0
  -12.6255   13.7707  -22.0608 H   0  0  0  0  0  0  0  0  0  0  0  0
  -12.3293   15.5932  -24.2053 H   0  0  0  0  0  0  0  0  0  0  0  0
  -12.0684   14.4032  -26.1031 H   0  0  0  0  0  0  0  0  0  0  0  0
  -13.7983   13.0610  -25.3315 H   0  0  0  0  0  0  0  0  0  0  0  0
  -13.9739   11.3163  -27.2969 H   0  0  0  0  0  0  0  0  0  0  0  0
   -8.7616    9.8553  -23.5628 H   0  0  0  0  0  0  0  0  0  0  0  0
  -10.7048    6.6156  -26.7520 H   0  0  0  0  0  0  0  0  0  0  0  0
  -10.1452    7.6917  -28.0620 H   0  0  0  0  0  0  0  0  0  0  0  0
  -10.2154   13.1284  -26.2158 H   0  0  0  0  0  0  0  0  0  0  0  0
  -10.9800   14.7383  -22.2688 H   0  0  0  0  0  0  0  0  0  0  0  0
  1  2  1  0
  2  3  1  0
  3  4  1  0
  4  5  1  0
  5  6  1  0
  5  7  1  0
  7  8  1  0
  8  9  2  0
  9 10  1  0
 10 11  2  0
 11 12  1  0
 12 13  2  0
 13 14  1  0
 14 15  2  0
 15 16  1  0
  4 17  1  0
  3 18  1  0
  6  2  1  0
 11  7  1  0
 15 10  1  0
  1 19  1  0
  1 20  1  0
  2 21  1  0
  3 22  1  0
  4 23  1  0
  5 24  1  0
  8 25  1  0
 13 26  1  0
 16 27  1  0
 16 28  1  0
 17 29  1  0
 18 30  1  0
M  RAD  1   1   2
M  END
$$$$

     RDKit          3D

 30 32  0  0  0  0  0  0  0  0999 V2000
  -14.0301   14.6477  -23.0849 C   0  0  0  0  0  3  0  0  0  0  0  0
  -13.2292   14.5370  -24.3431 C   0  0  0  0  0  0  0  0  0  0  0  0
  -11.7565   14.6834  -24.0667 C   0  0  0  0  0  0  0  0  0  0  0  0
  -11.2493   13.2783  -24.3716 C   0  0  0  0  0  0  0  0  0  0  0  0
  -12.2307   12.9013  -25.4760 C   0  0  0  0  0  0  0  0  0  0  0  0
  -13.4348   13.3041  -24.9171 O   0  0  0  0  0  0  0  0  0  0  0  0
  -12.1934   11.5070  -25.7749 N   0  0  0  0  0  0  0  0  0  0  0  0
  -13.2057   10.7267  -26.1927 C   0  0  0  0  0  0  0  0  0  0  0  0
  -12.7682    9.4519  -26.3682 N   0  0  0  0  0  0  0  0  0  0  0  0
  -11.4783    9.3990  -26.0672 C   0  0  0  0  0  0  0  0  0  0  0  0
  -11.1202   10.6922  -25.6947 C   0  0  0  0  0  0  0  0  0  0  0  0
   -9.8503   10.8869  -25.3439 N   0  0  0  0  0  0  0  0  0  0  0  0
   -8.9185    9.9195  -25.3317 C   0  0  0  0  0  0  0  0  0  0  0  0
   -9.3040    8.6828  -25.6983 N   0  0  0  0  0  0  0  0  0  0  0  0
  -10.5567    8.3709  -26.0708 C   0  0  0  0  0  0  0  0  0  0  0  0
  -10.8770    7.0379  -26.4429 N   0  0  0  0  0  0  0  0  0  0  0  0
  -11.4534   12.5096  -23.2310 O   0  0  0  0  0  0  0  0  0  0  0  0
  -11.4707   15.0719  -22.7803 O   0  0  0  0  0  0  0  0  0  0  0  0
  -13.4749   15.0369  -22.2263 H   0  0  0  0  0  0  0  0  0  0  0  0
  -15.0445   15.0175  -23.2090 H   0  0  0  0  0  0  0  0  0  0  0  0
  -13.5472   15.3071  -25.0996 H   0  0  0  0  0  0  0  0  0  0  0  0
  -11.2529   15.3607  -24.8144 H   0  0  0  0  0  0  0  0  0  0  0  0
  -10.2170   13.2595  -24.7155 H   0  0  0  0  0  0  0  0  0  0  0  0
  -12.0160   13.5579  -26.3357 H   0  0  0  0  0  0  0  0  0  0  0  0
  -14.2017   11.1044  -26.3507 H   0  0  0  0  0  0  0  0  0  0  0  0
   -7.8790   10.1270  -25.0339 H   0  0  0  0  0  0  0  0  0  0  0  0
  -10.7411    6.2772  -25.7450 H   0  0  0  0  0  0  0  0  0  0  0  0
  -11.2459    6.7771  -27.3905 H   0  0  0  0  0  0  0  0  0  0  0  0
  -12.3729   12.5665  -22.9329 H   0  0  0  0  0  0  0  0  0  0  0  0
  -11.1534   16.0054  -22.7820 H   0  0  0  0  0  0  0  0  0  0  0  0
  1  2  1  0
  2  3  1  0
  3  4  1  0
  4  5  1  0
  5  6  1  0
  5  7  1  0
  7  8  1  0
  8  9  2  0
  9 10  1  0
 10 11  2  0
 11 12  1  0
 12 13  2  0
 13 14  1  0
 14 15  2  0
 15 16  1  0
  4 17  1  0
  3 18  1  0
  6  2  1  0
 11  7  1  0
 15 10  1  0
  1 19  1  0
  1 20  1  0
  2 21  1  0
  3 22  1  0
  4 23  1  0
  5 24  1  0
  8 25  1  0
 13 26  1  0
 16 27  1  0
 16 28  1  0
 17 29  1  0
 18 30  1  0
M  RAD  1   1   2
M  END
$$$$

     RDKit          3D

 30 32  0  0  0  0  0  0  0  0999 V2000
  -14.4465   14.8813  -23.2213 C   0  0  0  0  0  3  0  0  0  0  0  0
  -13.2076   14.0922  -23.4703 C   0  0  0  0  0  0  0  0  0  0  0  0
  -12.3368   14.6838  -24.5685 C   0  0  0  0  0  0  0  0  0  0  0  0
  -11.4008   13.4934  -24.8121 C   0  0  0  0  0  0  0  0  0  0  0  0
  -12.2000   12.3573  -24.2621 C   0  0  0  0  0  0  0  0  0  0  0  0
  -13.4877   12.8235  -24.0270 O   0  0  0  0  0  0  0  0  0  0  0  0
  -12.1617   11.2633  -25.2005 N   0  0  0  0  0  0  0  0  0  0  0  0
  -13.0557   10.9067  -26.1362 C   0  0  0  0  0  0  0  0  0  0  0  0
  -12.5884    9.8226  -26.7678 N   0  0  0  0  0  0  0  0  0  0  0  0
  -11.3872    9.4710  -26.2433 C   0  0  0  0  0  0  0  0  0  0  0  0
  -11.1417   10.3873  -25.2645 C   0  0  0  0  0  0  0  0  0  0  0  0
   -9.9824   10.2870  -24.5474 N   0  0  0  0  0  0  0  0  0  0  0  0
   -9.1331    9.2988  -24.8289 C   0  0  0  0  0  0  0  0  0  0  0  0
   -9.3727    8.4005  -25.7878 N   0  0  0  0  0  0  0  0  0  0  0  0
  -10.4910    8.4678  -26.5054 C   0  0  0  0  0  0  0  0  0  0  0  0
  -10.8190    7.5483  -27.5444 N   0  0  0  0  0  0  0  0  0  0  0  0
  -10.2683   13.6455  -23.9927 O   0  0  0  0  0  0  0  0  0  0  0  0
  -11.6463   15.7776  -24.0758 O   0  0  0  0  0  0  0  0  0  0  0  0
  -15.3503   14.4024  -23.6725 H   0  0  0  0  0  0  0  0  0  0  0  0
  -14.6007   14.9077  -22.1033 H   0  0  0  0  0  0  0  0  0  0  0  0
  -12.5845   13.9097  -22.5955 H   0  0  0  0  0  0  0  0  0  0  0  0
  -12.8727   14.8583  -25.4978 H   0  0  0  0  0  0  0  0  0  0  0  0
  -11.1232   13.3971  -25.8617 H   0  0  0  0  0  0  0  0  0  0  0  0
  -11.8172   11.9758  -23.2956 H   0  0  0  0  0  0  0  0  0  0  0  0
  -14.0017   11.4394  -26.3236 H   0  0  0  0  0  0  0  0  0  0  0  0
   -8.2099    9.2358  -24.2431 H   0  0  0  0  0  0  0  0  0  0  0  0
  -11.4856    6.7736  -27.3432 H   0  0  0  0  0  0  0  0  0  0  0  0
  -10.3861    7.6737  -28.4735 H   0  0  0  0  0  0  0  0  0  0  0  0
  -10.5429   13.9800  -23.1018 H   0  0  0  0  0  0  0  0  0  0  0  0
  -11.0302   16.0893  -24.7694 H   0  0  0  0  0  0  0  0  0  0  0  0
  1  2  1  0
  2  3  1  0
  3  4  1  0
  4  5  1  0
  5  6  1  0
  5  7  1  0
  7  8  1  0
  8  9  2  0
  9 10  1  0
 10 11  2  0
 11 12  1  0
 12 13  2  0
 13 14  1  0
 14 15  2  0
 15 16  1  0
  4 17  1  0
  3 18  1  0
  6  2  1  0
 11  7  1  0
 15 10  1  0
  1 19  1  0
  1 20  1  0
  2 21  1  0
  3 22  1  0
  4 23  1  0
  5 24  1  0
  8 25  1  0
 13 26  1  0
 16 27  1  0
 16 28  1  0
 17 29  1  0
 18 30  1  0
M  RAD  1   1   2
M  END
$$$$

     RDKit          3D

 30 32  0  0  0  0  0  0  0  0999 V2000
  -14.5214   14.6979  -23.6092 C   0  0  0  0  0  3  0  0  0  0  0  0
  -13.4451   13.7274  -23.9498 C   0  0  0  0  0  0  0  0  0  0  0  0
  -12.0863   14.2897  -23.5218 C   0  0  0  0  0  0  0  0  0  0  0  0
  -11.1833   13.3053  -24.2359 C   0  0  0  0  0  0  0  0  0  0  0  0
  -11.9942   13.0252  -25.4921 C   0  0  0  0  0  0  0  0  0  0  0  0
  -13.2396   13.5696  -25.3050 O   0  0  0  0  0  0  0  0  0  0  0  0
  -12.0223   11.6159  -25.8047 N   0  0  0  0  0  0  0  0  0  0  0  0
  -13.0746   10.9818  -26.3522 C   0  0  0  0  0  0  0  0  0  0  0  0
  -12.7818    9.6709  -26.5182 N   0  0  0  0  0  0  0  0  0  0  0  0
  -11.5440    9.4474  -26.0817 C   0  0  0  0  0  0  0  0  0  0  0  0
  -11.0775   10.6867  -25.6339 C   0  0  0  0  0  0  0  0  0  0  0  0
   -9.8435   10.8096  -25.1246 N   0  0  0  0  0  0  0  0  0  0  0  0
   -9.0476    9.7334  -25.0435 C   0  0  0  0  0  0  0  0  0  0  0  0
   -9.4999    8.5489  -25.4740 N   0  0  0  0  0  0  0  0  0  0  0  0
  -10.7196    8.3414  -25.9957 C   0  0  0  0  0  0  0  0  0  0  0  0
  -11.1602    7.0733  -26.4396 N   0  0  0  0  0  0  0  0  0  0  0  0
   -9.9378   13.8533  -24.5325 O   0  0  0  0  0  0  0  0  0  0  0  0
  -11.9483   14.2302  -22.1416 O   0  0  0  0  0  0  0  0  0  0  0  0
  -15.4687   14.3290  -24.1016 H   0  0  0  0  0  0  0  0  0  0  0  0
  -14.7194   14.6236  -22.5174 H   0  0  0  0  0  0  0  0  0  0  0  0
  -13.5472   12.7573  -23.4031 H   0  0  0  0  0  0  0  0  0  0  0  0
  -11.9751   15.2988  -23.9257 H   0  0  0  0  0  0  0  0  0  0  0  0
  -11.1098   12.3626  -23.6516 H   0  0  0  0  0  0  0  0  0  0  0  0
  -11.4830   13.6150  -26.3075 H   0  0  0  0  0  0  0  0  0  0  0  0
  -14.0344   11.3910  -26.6403 H   0  0  0  0  0  0  0  0  0  0  0  0
   -8.0500    9.8541  -24.6272 H   0  0  0  0  0  0  0  0  0  0  0  0
  -11.3948    6.3529  -25.7331 H   0  0  0  0  0  0  0  0  0  0  0  0
  -11.2532    6.8494  -27.4459 H   0  0  0  0  0  0  0  0  0  0  0  0
   -9.2912   13.4241  -23.8964 H   0  0  0  0  0  0  0  0  0  0  0  0
  -12.2966   15.1087  -21.7871 H   0  0  0  0  0  0  0  0  0  0  0  0
  1  2  1  0
  2  3  1  0
  3  4  1  0
  4  5  1  0
  5  6  1  0
  5  7  1  0
  7  8  1  0
  8  9  2  0
  9 10  1  0
 10 11  2  0
 11 12  1  0
 12 13  2  0
 13 14  1  0
 14 15  2  0
 15 16  1  0
  4 17  1  0
  3 18  1  0
  6  2  1  0
 11  7  1  0
 15 10  1  0
  1 19  1  0
  1 20  1  0
  2 21  1  0
  3 22  1  0
  4 23  1  0
  5 24  1  0
  8 25  1  0
 13 26  1  0
 16 27  1  0
 16 28  1  0
 17 29  1  0
 18 30  1  0
M  RAD  1   1   2
M  END
$$$$

     RDKit          3D

 30 32  0  0  0  0  0  0  0  0999 V2000
  -12.8211   13.8464  -21.7818 C   0  0  0  0  0  3  0  0  0  0  0  0
  -11.9529   13.9443  -23.0188 C   0  0  0  0  0  0  0  0  0  0  0  0
  -12.7128   14.7273  -24.0635 C   0  0  0  0  0  0  0  0  0  0  0  0
  -12.3755   13.9114  -25.3108 C   0  0  0  0  0  0  0  0  0  0  0  0
  -12.3879   12.5215  -24.6890 C   0  0  0  0  0  0  0  0  0  0  0  0
  -11.6348   12.7243  -23.5459 O   0  0  0  0  0  0  0  0  0  0  0  0
  -11.8191   11.5430  -25.5633 N   0  0  0  0  0  0  0  0  0  0  0  0
  -11.6417   11.7248  -26.8845 C   0  0  0  0  0  0  0  0  0  0  0  0
  -11.0886   10.5907  -27.3417 N   0  0  0  0  0  0  0  0  0  0  0  0
  -10.9051    9.6908  -26.3654 C   0  0  0  0  0  0  0  0  0  0  0  0
  -11.3853   10.3240  -25.2121 C   0  0  0  0  0  0  0  0  0  0  0  0
  -11.3090    9.6107  -24.0758 N   0  0  0  0  0  0  0  0  0  0  0  0
  -10.8123    8.3640  -23.9942 C   0  0  0  0  0  0  0  0  0  0  0  0
  -10.3532    7.7774  -25.1375 N   0  0  0  0  0  0  0  0  0  0  0  0
  -10.3908    8.4156  -26.3146 C   0  0  0  0  0  0  0  0  0  0  0  0
   -9.9124    7.8003  -27.4968 N   0  0  0  0  0  0  0  0  0  0  0  0
  -13.3263   14.0561  -26.2924 O   0  0  0  0  0  0  0  0  0  0  0  0
  -12.2982   16.0354  -24.1678 O   0  0  0  0  0  0  0  0  0  0  0  0
  -12.3854   14.3767  -20.9118 H   0  0  0  0  0  0  0  0  0  0  0  0
  -13.8366   14.2669  -21.9395 H   0  0  0  0  0  0  0  0  0  0  0  0
  -11.0161   14.5340  -22.8057 H   0  0  0  0  0  0  0  0  0  0  0  0
  -13.8087   14.6211  -23.9214 H   0  0  0  0  0  0  0  0  0  0  0  0
  -11.3429   14.1120  -25.6552 H   0  0  0  0  0  0  0  0  0  0  0  0
  -13.4240   12.2376  -24.3911 H   0  0  0  0  0  0  0  0  0  0  0  0
  -11.8873   12.6048  -27.4928 H   0  0  0  0  0  0  0  0  0  0  0  0
  -10.7613    7.8077  -23.0634 H   0  0  0  0  0  0  0  0  0  0  0  0
   -9.0140    7.2653  -27.5154 H   0  0  0  0  0  0  0  0  0  0  0  0
  -10.4273    7.8465  -28.4099 H   0  0  0  0  0  0  0  0  0  0  0  0
  -12.9436   14.6962  -26.9721 H   0  0  0  0  0  0  0  0  0  0  0  0
  -12.4390   16.4020  -25.0769 H   0  0  0  0  0  0  0  0  0  0  0  0
  1  2  1  0
  2  3  1  0
  3  4  1  0
  4  5  1  0
  5  6  1  0
  5  7  1  0
  7  8  1  0
  8  9  2  0
  9 10  1  0
 10 11  2  0
 11 12  1  0
 12 13  2  0
 13 14  1  0
 14 15  2  0
 15 16  1  0
  4 17  1  0
  3 18  1  0
  6  2  1  0
 11  7  1  0
 15 10  1  0
  1 19  1  0
  1 20  1  0
  2 21  1  0
  3 22  1  0
  4 23  1  0
  5 24  1  0
  8 25  1  0
 13 26  1  0
 16 27  1  0
 16 28  1  0
 17 29  1  0
 18 30  1  0
M  RAD  1   1   2
M  END
$$$$

     RDKit          3D

 30 32  0  0  0  0  0  0  0  0999 V2000
  -14.5119   14.1567  -22.9700 C   0  0  0  0  0  3  0  0  0  0  0  0
  -13.0466   13.9353  -23.2497 C   0  0  0  0  0  0  0  0  0  0  0  0
  -12.7521   14.6169  -24.5913 C   0  0  0  0  0  0  0  0  0  0  0  0
  -11.4616   13.9170  -24.9919 C   0  0  0  0  0  0  0  0  0  0  0  0
  -11.6067   12.5895  -24.3068 C   0  0  0  0  0  0  0  0  0  0  0  0
  -12.7338   12.6270  -23.5227 O   0  0  0  0  0  0  0  0  0  0  0  0
  -11.6584   11.4951  -25.2873 N   0  0  0  0  0  0  0  0  0  0  0  0
  -12.3603   11.4413  -26.4320 C   0  0  0  0  0  0  0  0  0  0  0  0
  -12.1527   10.2736  -27.0663 N   0  0  0  0  0  0  0  0  0  0  0  0
  -11.3122    9.5562  -26.3383 C   0  0  0  0  0  0  0  0  0  0  0  0
  -10.9979   10.3245  -25.2139 C   0  0  0  0  0  0  0  0  0  0  0  0
  -10.1556    9.8151  -24.3120 N   0  0  0  0  0  0  0  0  0  0  0  0
   -9.6123    8.5945  -24.4636 C   0  0  0  0  0  0  0  0  0  0  0  0
   -9.9284    7.8710  -25.5538 N   0  0  0  0  0  0  0  0  0  0  0  0
  -10.7660    8.2977  -26.5164 C   0  0  0  0  0  0  0  0  0  0  0  0
  -11.0605    7.4876  -27.6440 N   0  0  0  0  0  0  0  0  0  0  0  0
  -10.4157   14.6433  -24.4011 O   0  0  0  0  0  0  0  0  0  0  0  0
  -12.5943   15.9657  -24.3949 O   0  0  0  0  0  0  0  0  0  0  0  0
  -15.0901   14.3387  -23.9132 H   0  0  0  0  0  0  0  0  0  0  0  0
  -14.9707   13.2902  -22.4392 H   0  0  0  0  0  0  0  0  0  0  0  0
  -12.4547   14.3959  -22.4586 H   0  0  0  0  0  0  0  0  0  0  0  0
  -13.5070   14.3442  -25.3350 H   0  0  0  0  0  0  0  0  0  0  0  0
  -11.3156   13.8642  -26.0697 H   0  0  0  0  0  0  0  0  0  0  0  0
  -10.7242   12.4138  -23.6652 H   0  0  0  0  0  0  0  0  0  0  0  0
  -13.0001   12.2738  -26.7509 H   0  0  0  0  0  0  0  0  0  0  0  0
   -8.9192    8.1986  -23.7023 H   0  0  0  0  0  0  0  0  0  0  0  0
  -10.6593    7.6482  -28.5734 H   0  0  0  0  0  0  0  0  0  0  0  0
  -11.7204    6.6946  -27.4984 H   0  0  0  0  0  0  0  0  0  0  0  0
  -10.4131   15.5366  -24.7794 H   0  0  0  0  0  0  0  0  0  0  0  0
  -13.3229   16.4261  -24.8915 H   0  0  0  0  0  0  0  0  0  0  0  0
  1  2  1  0
  2  3  1  0
  3  4  1  0
  4  5  1  0
  5  6  1  0
  5  7  1  0
  7  8  1  0
  8  9  2  0
  9 10  1  0
 10 11  2  0
 11 12  1  0
 12 13  2  0
 13 14  1  0
 14 15  2  0
 15 16  1  0
  4 17  1  0
  3 18  1  0
  6  2  1  0
 11  7  1  0
 15 10  1  0
  1 19  1  0
  1 20  1  0
  2 21  1  0
  3 22  1  0
  4 23  1  0
  5 24  1  0
  8 25  1  0
 13 26  1  0
 16 27  1  0
 16 28  1  0
 17 29  1  0
 18 30  1  0
M  RAD  1   1   2
M  END
$$$$

     RDKit          3D

 30 32  0  0  0  0  0  0  0  0999 V2000
  -12.8343   15.5902  -25.9205 C   0  0  0  0  0  3  0  0  0  0  0  0
  -12.7221   14.3321  -25.1661 C   0  0  0  0  0  0  0  0  0  0  0  0
  -12.5972   14.5462  -23.6527 C   0  0  0  0  0  0  0  0  0  0  0  0
  -12.2833   13.0943  -23.2642 C   0  0  0  0  0  0  0  0  0  0  0  0
  -11.4232   12.6720  -24.4197 C   0  0  0  0  0  0  0  0  0  0  0  0
  -11.5264   13.6403  -25.4034 O   0  0  0  0  0  0  0  0  0  0  0  0
  -11.7724   11.3937  -24.9657 N   0  0  0  0  0  0  0  0  0  0  0  0
  -12.9853   10.8657  -25.1175 C   0  0  0  0  0  0  0  0  0  0  0  0
  -12.8860    9.6420  -25.6701 N   0  0  0  0  0  0  0  0  0  0  0  0
  -11.5709    9.3958  -25.8706 C   0  0  0  0  0  0  0  0  0  0  0  0
  -10.8601   10.4947  -25.4296 C   0  0  0  0  0  0  0  0  0  0  0  0
   -9.5117   10.5263  -25.5086 N   0  0  0  0  0  0  0  0  0  0  0  0
   -8.8559    9.4718  -26.0241 C   0  0  0  0  0  0  0  0  0  0  0  0
   -9.5029    8.3681  -26.4716 N   0  0  0  0  0  0  0  0  0  0  0  0
  -10.8515    8.3498  -26.3868 C   0  0  0  0  0  0  0  0  0  0  0  0
  -11.5484    7.1956  -26.8534 N   0  0  0  0  0  0  0  0  0  0  0  0
  -11.6338   13.0372  -22.0411 O   0  0  0  0  0  0  0  0  0  0  0  0
  -13.7616   14.9921  -23.0902 O   0  0  0  0  0  0  0  0  0  0  0  0
  -13.8415   15.6882  -26.3699 H   0  0  0  0  0  0  0  0  0  0  0  0
  -12.4485   16.4903  -25.4507 H   0  0  0  0  0  0  0  0  0  0  0  0
  -13.5924   13.6792  -25.3361 H   0  0  0  0  0  0  0  0  0  0  0  0
  -11.7057   15.1312  -23.4053 H   0  0  0  0  0  0  0  0  0  0  0  0
  -13.2235   12.5148  -23.1883 H   0  0  0  0  0  0  0  0  0  0  0  0
  -10.3580   12.6515  -24.0464 H   0  0  0  0  0  0  0  0  0  0  0  0
  -13.9104   11.3532  -24.8362 H   0  0  0  0  0  0  0  0  0  0  0  0
   -7.7670    9.4431  -26.1120 H   0  0  0  0  0  0  0  0  0  0  0  0
  -11.2697    6.2614  -26.4892 H   0  0  0  0  0  0  0  0  0  0  0  0
  -12.3276    7.2996  -27.5524 H   0  0  0  0  0  0  0  0  0  0  0  0
  -10.8701   13.6568  -21.9856 H   0  0  0  0  0  0  0  0  0  0  0  0
  -13.8968   14.6936  -22.1609 H   0  0  0  0  0  0  0  0  0  0  0  0
  1  2  1  0
  2  3  1  0
  3  4  1  0
  4  5  1  0
  5  6  1  0
  5  7  1  0
  7  8  1  0
  8  9  2  0
  9 10  1  0
 10 11  2  0
 11 12  1  0
 12 13  2  0
 13 14  1  0
 14 15  2  0
 15 16  1  0
  4 17  1  0
  3 18  1  0
  6  2  1  0
 11  7  1  0
 15 10  1  0
  1 19  1  0
  1 20  1  0
  2 21  1  0
  3 22  1  0
  4 23  1  0
  5 24  1  0
  8 25  1  0
 13 26  1  0
 16 27  1  0
 16 28  1  0
 17 29  1  0
 18 30  1  0
M  RAD  1   1   2
M  END
$$$$

     RDKit          3D

 30 32  0  0  0  0  0  0  0  0999 V2000
  -12.8775   13.8611  -21.7622 C   0  0  0  0  0  3  0  0  0  0  0  0
  -13.0456   13.8024  -23.2493 C   0  0  0  0  0  0  0  0  0  0  0  0
  -12.1486   14.8394  -23.8858 C   0  0  0  0  0  0  0  0  0  0  0  0
  -11.6721   14.0644  -25.1257 C   0  0  0  0  0  0  0  0  0  0  0  0
  -11.6504   12.6715  -24.5738 C   0  0  0  0  0  0  0  0  0  0  0  0
  -12.7872   12.5898  -23.8142 O   0  0  0  0  0  0  0  0  0  0  0  0
  -11.4713   11.6454  -25.5333 N   0  0  0  0  0  0  0  0  0  0  0  0
  -11.6207   11.6941  -26.8622 C   0  0  0  0  0  0  0  0  0  0  0  0
  -11.3434   10.4807  -27.3620 N   0  0  0  0  0  0  0  0  0  0  0  0
  -11.0128    9.6361  -26.3692 C   0  0  0  0  0  0  0  0  0  0  0  0
  -11.0950   10.3791  -25.2092 C   0  0  0  0  0  0  0  0  0  0  0  0
  -10.8045    9.7411  -24.0618 N   0  0  0  0  0  0  0  0  0  0  0  0
  -10.4481    8.4341  -24.0380 C   0  0  0  0  0  0  0  0  0  0  0  0
  -10.3707    7.7178  -25.1747 N   0  0  0  0  0  0  0  0  0  0  0  0
  -10.6466    8.2920  -26.3479 C   0  0  0  0  0  0  0  0  0  0  0  0
  -10.5755    7.5696  -27.5633 N   0  0  0  0  0  0  0  0  0  0  0  0
  -12.6424   14.2649  -26.0888 O   0  0  0  0  0  0  0  0  0  0  0  0
  -12.9146   15.9245  -24.2345 O   0  0  0  0  0  0  0  0  0  0  0  0
  -13.7073   13.3813  -21.2096 H   0  0  0  0  0  0  0  0  0  0  0  0
  -11.8789   13.5895  -21.4188 H   0  0  0  0  0  0  0  0  0  0  0  0
  -14.1270   14.0472  -23.4584 H   0  0  0  0  0  0  0  0  0  0  0  0
  -11.2673   15.0717  -23.2901 H   0  0  0  0  0  0  0  0  0  0  0  0
  -10.7107   14.4214  -25.4903 H   0  0  0  0  0  0  0  0  0  0  0  0
  -10.7783   12.6346  -23.8560 H   0  0  0  0  0  0  0  0  0  0  0  0
  -11.9103   12.5327  -27.4715 H   0  0  0  0  0  0  0  0  0  0  0  0
  -10.2118    7.9084  -23.1219 H   0  0  0  0  0  0  0  0  0  0  0  0
  -11.3058    6.8693  -27.7909 H   0  0  0  0  0  0  0  0  0  0  0  0
   -9.8094    7.7153  -28.2466 H   0  0  0  0  0  0  0  0  0  0  0  0
  -13.4746   13.7636  -25.9198 H   0  0  0  0  0  0  0  0  0  0  0  0
  -13.0471   16.0664  -25.1852 H   0  0  0  0  0  0  0  0  0  0  0  0
  1  2  1  0
  2  3  1  0
  3  4  1  0
  4  5  1  0
  5  6  1  0
  5  7  1  0
  7  8  1  0
  8  9  2  0
  9 10  1  0
 10 11  2  0
 11 12  1  0
 12 13  2  0
 13 14  1  0
 14 15  2  0
 15 16  1  0
  4 17  1  0
  3 18  1  0
  6  2  1  0
 11  7  1  0
 15 10  1  0
  1 19  1  0
  1 20  1  0
  2 21  1  0
  3 22  1  0
  4 23  1  0
  5 24  1  0
  8 25  1  0
 13 26  1  0
 16 27  1  0
 16 28  1  0
 17 29  1  0
 18 30  1  0
M  RAD  1   1   2
M  END
$$$$

     RDKit          3D

 30 32  0  0  0  0  0  0  0  0999 V2000
  -13.9346   15.6547  -24.7250 C   0  0  0  0  0  3  0  0  0  0  0  0
  -13.3835   14.3014  -24.3701 C   0  0  0  0  0  0  0  0  0  0  0  0
  -12.3681   14.3646  -23.2585 C   0  0  0  0  0  0  0  0  0  0  0  0
  -11.6857   13.0150  -23.4551 C   0  0  0  0  0  0  0  0  0  0  0  0
  -11.7590   12.8767  -24.9509 C   0  0  0  0  0  0  0  0  0  0  0  0
  -12.7840   13.6536  -25.4120 O   0  0  0  0  0  0  0  0  0  0  0  0
  -11.8788   11.4808  -25.3001 N   0  0  0  0  0  0  0  0  0  0  0  0
  -13.0170   10.7970  -25.3609 C   0  0  0  0  0  0  0  0  0  0  0  0
  -12.7452    9.5171  -25.7200 N   0  0  0  0  0  0  0  0  0  0  0  0
  -11.4068    9.4180  -25.8824 C   0  0  0  0  0  0  0  0  0  0  0  0
  -10.8629   10.6437  -25.6207 C   0  0  0  0  0  0  0  0  0  0  0  0
   -9.5399   10.8012  -25.7151 N   0  0  0  0  0  0  0  0  0  0  0  0
   -8.7784    9.7494  -26.0652 C   0  0  0  0  0  0  0  0  0  0  0  0
   -9.2966    8.5345  -26.3268 N   0  0  0  0  0  0  0  0  0  0  0  0
  -10.6239    8.3422  -26.2410 C   0  0  0  0  0  0  0  0  0  0  0  0
  -11.1302    7.0496  -26.5239 N   0  0  0  0  0  0  0  0  0  0  0  0
  -12.5078   12.0521  -22.8733 O   0  0  0  0  0  0  0  0  0  0  0  0
  -11.4247   15.3565  -23.4550 O   0  0  0  0  0  0  0  0  0  0  0  0
  -13.8926   16.3515  -23.8396 H   0  0  0  0  0  0  0  0  0  0  0  0
  -13.4492   16.0946  -25.6127 H   0  0  0  0  0  0  0  0  0  0  0  0
  -14.2341   13.6730  -24.0171 H   0  0  0  0  0  0  0  0  0  0  0  0
  -12.8233   14.3818  -22.2535 H   0  0  0  0  0  0  0  0  0  0  0  0
  -10.6583   13.0097  -23.0571 H   0  0  0  0  0  0  0  0  0  0  0  0
  -10.8064   13.2487  -25.3958 H   0  0  0  0  0  0  0  0  0  0  0  0
  -14.0075   11.1842  -25.1594 H   0  0  0  0  0  0  0  0  0  0  0  0
   -7.7037    9.8518  -26.1485 H   0  0  0  0  0  0  0  0  0  0  0  0
  -11.3344    6.7240  -27.4929 H   0  0  0  0  0  0  0  0  0  0  0  0
  -11.2965    6.4163  -25.7050 H   0  0  0  0  0  0  0  0  0  0  0  0
  -13.2922   12.4596  -22.4030 H   0  0  0  0  0  0  0  0  0  0  0  0
  -10.4927   15.0032  -23.3441 H   0  0  0  0  0  0  0  0  0  0  0  0
  1  2  1  0
  2  3  1  0
  3  4  1  0
  4  5  1  0
  5  6  1  0
  5  7  1  0
  7  8  1  0
  8  9  2  0
  9 10  1  0
 10 11  2  0
 11 12  1  0
 12 13  2  0
 13 14  1  0
 14 15  2  0
 15 16  1  0
  4 17  1  0
  3 18  1  0
  6  2  1  0
 11  7  1  0
 15 10  1  0
  1 19  1  0
  1 20  1  0
  2 21  1  0
  3 22  1  0
  4 23  1  0
  5 24  1  0
  8 25  1  0
 13 26  1  0
 16 27  1  0
 16 28  1  0
 17 29  1  0
 18 30  1  0
M  RAD  1   1   2
M  END
$$$$

     RDKit          3D

 30 32  0  0  0  0  0  0  0  0999 V2000
  -14.1258   14.2963  -22.9548 C   0  0  0  0  0  3  0  0  0  0  0  0
  -12.7115   13.7839  -23.0139 C   0  0  0  0  0  0  0  0  0  0  0  0
  -11.8388   14.6694  -23.8405 C   0  0  0  0  0  0  0  0  0  0  0  0
  -11.3536   13.7041  -24.9310 C   0  0  0  0  0  0  0  0  0  0  0  0
  -12.5064   12.7227  -24.9222 C   0  0  0  0  0  0  0  0  0  0  0  0
  -12.6867   12.5145  -23.5603 O   0  0  0  0  0  0  0  0  0  0  0  0
  -12.2352   11.5275  -25.6560 N   0  0  0  0  0  0  0  0  0  0  0  0
  -12.8760   11.1348  -26.7738 C   0  0  0  0  0  0  0  0  0  0  0  0
  -12.3639    9.9668  -27.1943 N   0  0  0  0  0  0  0  0  0  0  0  0
  -11.3948    9.5944  -26.3604 C   0  0  0  0  0  0  0  0  0  0  0  0
  -11.3191   10.5885  -25.3882 C   0  0  0  0  0  0  0  0  0  0  0  0
  -10.4272   10.4884  -24.4056 N   0  0  0  0  0  0  0  0  0  0  0  0
   -9.6028    9.4258  -24.3576 C   0  0  0  0  0  0  0  0  0  0  0  0
   -9.6728    8.4631  -25.2950 N   0  0  0  0  0  0  0  0  0  0  0  0
  -10.5480    8.4970  -26.3162 C   0  0  0  0  0  0  0  0  0  0  0  0
  -10.6271    7.4836  -27.3097 N   0  0  0  0  0  0  0  0  0  0  0  0
  -10.1735   13.1528  -24.4841 O   0  0  0  0  0  0  0  0  0  0  0  0
  -12.6638   15.5945  -24.4924 O   0  0  0  0  0  0  0  0  0  0  0  0
  -14.5291   14.3544  -23.9822 H   0  0  0  0  0  0  0  0  0  0  0  0
  -14.7312   13.6111  -22.3315 H   0  0  0  0  0  0  0  0  0  0  0  0
  -12.3166   13.8121  -21.9640 H   0  0  0  0  0  0  0  0  0  0  0  0
  -11.0120   15.1380  -23.3044 H   0  0  0  0  0  0  0  0  0  0  0  0
  -11.2585   14.2245  -25.9062 H   0  0  0  0  0  0  0  0  0  0  0  0
  -13.3988   13.2415  -25.2949 H   0  0  0  0  0  0  0  0  0  0  0  0
  -13.6754   11.6951  -27.2372 H   0  0  0  0  0  0  0  0  0  0  0  0
   -8.8657    9.3452  -23.5436 H   0  0  0  0  0  0  0  0  0  0  0  0
  -11.5263    7.0439  -27.6035 H   0  0  0  0  0  0  0  0  0  0  0  0
   -9.7500    7.1543  -27.7758 H   0  0  0  0  0  0  0  0  0  0  0  0
   -9.8837   13.5151  -23.5891 H   0  0  0  0  0  0  0  0  0  0  0  0
  -12.1773   16.3596  -24.8534 H   0  0  0  0  0  0  0  0  0  0  0  0
  1  2  1  0
  2  3  1  0
  3  4  1  0
  4  5  1  0
  5  6  1  0
  5  7  1  0
  7  8  1  0
  8  9  2  0
  9 10  1  0
 10 11  2  0
 11 12  1  0
 12 13  2  0
 13 14  1  0
 14 15  2  0
 15 16  1  0
  4 17  1  0
  3 18  1  0
  6  2  1  0
 11  7  1  0
 15 10  1  0
  1 19  1  0
  1 20  1  0
  2 21  1  0
  3 22  1  0
  4 23  1  0
  5 24  1  0
  8 25  1  0
 13 26  1  0
 16 27  1  0
 16 28  1  0
 17 29  1  0
 18 30  1  0
M  RAD  1   1   2
M  END
$$$$

     RDKit          3D

 30 32  0  0  0  0  0  0  0  0999 V2000
  -12.4865   14.0304  -21.7322 C   0  0  0  0  0  3  0  0  0  0  0  0
  -11.9354   14.0601  -23.1114 C   0  0  0  0  0  0  0  0  0  0  0  0
  -12.8597   14.5838  -24.1540 C   0  0  0  0  0  0  0  0  0  0  0  0
  -12.3042   13.9564  -25.4333 C   0  0  0  0  0  0  0  0  0  0  0  0
  -11.1502   13.1367  -24.8951 C   0  0  0  0  0  0  0  0  0  0  0  0
  -11.4898   12.8284  -23.5743 O   0  0  0  0  0  0  0  0  0  0  0  0
  -10.9939   11.9195  -25.6675 N   0  0  0  0  0  0  0  0  0  0  0  0
  -10.7404   11.8964  -26.9889 C   0  0  0  0  0  0  0  0  0  0  0  0
  -10.6510   10.6066  -27.4096 N   0  0  0  0  0  0  0  0  0  0  0  0
  -10.8478    9.8139  -26.3549 C   0  0  0  0  0  0  0  0  0  0  0  0
  -11.0615   10.6356  -25.2692 C   0  0  0  0  0  0  0  0  0  0  0  0
  -11.2911   10.0953  -24.0524 N   0  0  0  0  0  0  0  0  0  0  0  0
  -11.3008    8.7568  -23.9547 C   0  0  0  0  0  0  0  0  0  0  0  0
  -11.0942    7.9438  -25.0038 N   0  0  0  0  0  0  0  0  0  0  0  0
  -10.8600    8.4251  -26.2424 C   0  0  0  0  0  0  0  0  0  0  0  0
  -10.6377    7.5978  -27.3725 N   0  0  0  0  0  0  0  0  0  0  0  0
  -13.2536   13.1213  -26.0197 O   0  0  0  0  0  0  0  0  0  0  0  0
  -14.1690   14.2000  -24.0202 O   0  0  0  0  0  0  0  0  0  0  0  0
  -13.2836   13.3142  -21.5567 H   0  0  0  0  0  0  0  0  0  0  0  0
  -12.6635   15.0479  -21.3871 H   0  0  0  0  0  0  0  0  0  0  0  0
  -11.0336   14.7374  -23.0966 H   0  0  0  0  0  0  0  0  0  0  0  0
  -12.7843   15.6805  -24.2982 H   0  0  0  0  0  0  0  0  0  0  0  0
  -11.8887   14.6967  -26.1191 H   0  0  0  0  0  0  0  0  0  0  0  0
  -10.2172   13.7337  -24.8585 H   0  0  0  0  0  0  0  0  0  0  0  0
  -10.6251   12.7749  -27.6215 H   0  0  0  0  0  0  0  0  0  0  0  0
  -11.4815    8.2960  -22.9959 H   0  0  0  0  0  0  0  0  0  0  0  0
   -9.9682    7.8184  -28.1353 H   0  0  0  0  0  0  0  0  0  0  0  0
  -11.1769    6.7132  -27.4464 H   0  0  0  0  0  0  0  0  0  0  0  0
  -14.0310   13.7226  -26.2423 H   0  0  0  0  0  0  0  0  0  0  0  0
  -14.4328   13.8661  -23.1492 H   0  0  0  0  0  0  0  0  0  0  0  0
  1  2  1  0
  2  3  1  0
  3  4  1  0
  4  5  1  0
  5  6  1  0
  5  7  1  0
  7  8  1  0
  8  9  2  0
  9 10  1  0
 10 11  2  0
 11 12  1  0
 12 13  2  0
 13 14  1  0
 14 15  2  0
 15 16  1  0
  4 17  1  0
  3 18  1  0
  6  2  1  0
 11  7  1  0
 15 10  1  0
  1 19  1  0
  1 20  1  0
  2 21  1  0
  3 22  1  0
  4 23  1  0
  5 24  1  0
  8 25  1  0
 13 26  1  0
 16 27  1  0
 16 28  1  0
 17 29  1  0
 18 30  1  0
M  RAD  1   1   2
M  END
$$$$

     RDKit          3D

 30 32  0  0  0  0  0  0  0  0999 V2000
  -13.3651   13.9609  -25.9603 C   0  0  0  0  0  3  0  0  0  0  0  0
  -13.3050   14.1885  -24.4856 C   0  0  0  0  0  0  0  0  0  0  0  0
  -11.9406   14.6898  -24.0252 C   0  0  0  0  0  0  0  0  0  0  0  0
  -11.1479   13.3936  -24.0076 C   0  0  0  0  0  0  0  0  0  0  0  0
  -12.2195   12.3786  -23.7411 C   0  0  0  0  0  0  0  0  0  0  0  0
  -13.4373   13.0261  -23.7526 O   0  0  0  0  0  0  0  0  0  0  0  0
  -12.2196   11.2950  -24.7102 N   0  0  0  0  0  0  0  0  0  0  0  0
  -13.2734   10.8684  -25.4276 C   0  0  0  0  0  0  0  0  0  0  0  0
  -12.8682    9.8561  -26.2037 N   0  0  0  0  0  0  0  0  0  0  0  0
  -11.5514    9.6438  -25.9738 C   0  0  0  0  0  0  0  0  0  0  0  0
  -11.1468   10.5526  -25.0321 C   0  0  0  0  0  0  0  0  0  0  0  0
   -9.8563   10.5191  -24.6506 N   0  0  0  0  0  0  0  0  0  0  0  0
   -8.9919    9.6090  -25.1888 C   0  0  0  0  0  0  0  0  0  0  0  0
   -9.3858    8.7175  -26.1117 N   0  0  0  0  0  0  0  0  0  0  0  0
  -10.6609    8.7159  -26.5197 C   0  0  0  0  0  0  0  0  0  0  0  0
  -11.1517    7.8022  -27.4933 N   0  0  0  0  0  0  0  0  0  0  0  0
  -10.5009   13.1801  -25.2224 O   0  0  0  0  0  0  0  0  0  0  0  0
  -12.1049   15.2107  -22.7495 O   0  0  0  0  0  0  0  0  0  0  0  0
  -13.9753   14.7893  -26.4220 H   0  0  0  0  0  0  0  0  0  0  0  0
  -12.3652   13.8928  -26.4414 H   0  0  0  0  0  0  0  0  0  0  0  0
  -14.0344   14.9648  -24.1387 H   0  0  0  0  0  0  0  0  0  0  0  0
  -11.4838   15.3812  -24.7311 H   0  0  0  0  0  0  0  0  0  0  0  0
  -10.4063   13.4828  -23.1874 H   0  0  0  0  0  0  0  0  0  0  0  0
  -11.9945   11.9225  -22.7344 H   0  0  0  0  0  0  0  0  0  0  0  0
  -14.2935   11.2733  -25.3908 H   0  0  0  0  0  0  0  0  0  0  0  0
   -7.9745    9.6589  -24.8199 H   0  0  0  0  0  0  0  0  0  0  0  0
  -12.1551    7.5120  -27.5241 H   0  0  0  0  0  0  0  0  0  0  0  0
  -10.5432    7.3719  -28.2278 H   0  0  0  0  0  0  0  0  0  0  0  0
   -9.6442   13.6827  -25.2153 H   0  0  0  0  0  0  0  0  0  0  0  0
  -13.0193   15.6089  -22.6458 H   0  0  0  0  0  0  0  0  0  0  0  0
  1  2  1  0
  2  3  1  0
  3  4  1  0
  4  5  1  0
  5  6  1  0
  5  7  1  0
  7  8  1  0
  8  9  2  0
  9 10  1  0
 10 11  2  0
 11 12  1  0
 12 13  2  0
 13 14  1  0
 14 15  2  0
 15 16  1  0
  4 17  1  0
  3 18  1  0
  6  2  1  0
 11  7  1  0
 15 10  1  0
  1 19  1  0
  1 20  1  0
  2 21  1  0
  3 22  1  0
  4 23  1  0
  5 24  1  0
  8 25  1  0
 13 26  1  0
 16 27  1  0
 16 28  1  0
 17 29  1  0
 18 30  1  0
M  RAD  1   1   2
M  END
$$$$

     RDKit          3D

 30 32  0  0  0  0  0  0  0  0999 V2000
  -12.0104   14.3206  -22.0076 C   0  0  0  0  0  3  0  0  0  0  0  0
  -12.8559   13.6933  -23.0779 C   0  0  0  0  0  0  0  0  0  0  0  0
  -12.9466   14.6715  -24.2254 C   0  0  0  0  0  0  0  0  0  0  0  0
  -12.5168   13.8153  -25.3982 C   0  0  0  0  0  0  0  0  0  0  0  0
  -12.8670   12.4214  -24.8574 C   0  0  0  0  0  0  0  0  0  0  0  0
  -12.3492   12.5129  -23.5729 O   0  0  0  0  0  0  0  0  0  0  0  0
  -12.2344   11.4042  -25.6563 N   0  0  0  0  0  0  0  0  0  0  0  0
  -12.3361   11.3592  -27.0014 C   0  0  0  0  0  0  0  0  0  0  0  0
  -11.6342   10.2949  -27.4327 N   0  0  0  0  0  0  0  0  0  0  0  0
  -11.1045    9.6904  -26.3553 C   0  0  0  0  0  0  0  0  0  0  0  0
  -11.4818   10.3878  -25.2382 C   0  0  0  0  0  0  0  0  0  0  0  0
  -11.0639    9.9629  -24.0219 N   0  0  0  0  0  0  0  0  0  0  0  0
  -10.2868    8.8600  -23.9673 C   0  0  0  0  0  0  0  0  0  0  0  0
   -9.9154    8.1738  -25.0649 N   0  0  0  0  0  0  0  0  0  0  0  0
  -10.3092    8.5631  -26.2900 C   0  0  0  0  0  0  0  0  0  0  0  0
   -9.9486    7.8788  -27.4834 N   0  0  0  0  0  0  0  0  0  0  0  0
  -11.1322   13.8227  -25.5553 O   0  0  0  0  0  0  0  0  0  0  0  0
  -12.1340   15.7752  -24.0499 O   0  0  0  0  0  0  0  0  0  0  0  0
  -11.0436   13.8473  -21.8491 H   0  0  0  0  0  0  0  0  0  0  0  0
  -12.5540   14.6282  -21.1149 H   0  0  0  0  0  0  0  0  0  0  0  0
  -13.8807   13.4543  -22.6684 H   0  0  0  0  0  0  0  0  0  0  0  0
  -14.0082   14.9383  -24.3985 H   0  0  0  0  0  0  0  0  0  0  0  0
  -13.0670   14.0223  -26.3189 H   0  0  0  0  0  0  0  0  0  0  0  0
  -13.9634   12.2795  -24.8030 H   0  0  0  0  0  0  0  0  0  0  0  0
  -12.8727   12.0332  -27.6559 H   0  0  0  0  0  0  0  0  0  0  0  0
   -9.9370    8.4945  -23.0185 H   0  0  0  0  0  0  0  0  0  0  0  0
   -9.4373    8.4321  -28.2027 H   0  0  0  0  0  0  0  0  0  0  0  0
  -10.1593    6.8950  -27.6697 H   0  0  0  0  0  0  0  0  0  0  0  0
  -10.7254   12.9274  -25.4683 H   0  0  0  0  0  0  0  0  0  0  0  0
  -12.3075   16.3903  -24.7980 H   0  0  0  0  0  0  0  0  0  0  0  0
  1  2  1  0
  2  3  1  0
  3  4  1  0
  4  5  1  0
  5  6  1  0
  5  7  1  0
  7  8  1  0
  8  9  2  0
  9 10  1  0
 10 11  2  0
 11 12  1  0
 12 13  2  0
 13 14  1  0
 14 15  2  0
 15 16  1  0
  4 17  1  0
  3 18  1  0
  6  2  1  0
 11  7  1  0
 15 10  1  0
  1 19  1  0
  1 20  1  0
  2 21  1  0
  3 22  1  0
  4 23  1  0
  5 24  1  0
  8 25  1  0
 13 26  1  0
 16 27  1  0
 16 28  1  0
 17 29  1  0
 18 30  1  0
M  RAD  1   1   2
M  END
$$$$

     RDKit          3D

 30 32  0  0  0  0  0  0  0  0999 V2000
  -12.5314   13.7305  -21.7378 C   0  0  0  0  0  3  0  0  0  0  0  0
  -12.9232   13.7380  -23.1913 C   0  0  0  0  0  0  0  0  0  0  0  0
  -12.2384   14.8442  -23.9617 C   0  0  0  0  0  0  0  0  0  0  0  0
  -11.8465   14.0849  -25.2360 C   0  0  0  0  0  0  0  0  0  0  0  0
  -11.5214   12.7531  -24.6296 C   0  0  0  0  0  0  0  0  0  0  0  0
  -12.5817   12.5444  -23.7668 O   0  0  0  0  0  0  0  0  0  0  0  0
  -11.3613   11.7067  -25.5831 N   0  0  0  0  0  0  0  0  0  0  0  0
  -11.4467   11.7403  -26.9216 C   0  0  0  0  0  0  0  0  0  0  0  0
  -11.2221   10.5092  -27.4253 N   0  0  0  0  0  0  0  0  0  0  0  0
  -10.9890    9.6670  -26.4141 C   0  0  0  0  0  0  0  0  0  0  0  0
  -11.0794   10.4330  -25.2600 C   0  0  0  0  0  0  0  0  0  0  0  0
  -10.8833    9.8208  -24.0712 N   0  0  0  0  0  0  0  0  0  0  0  0
  -10.6070    8.5140  -23.9596 C   0  0  0  0  0  0  0  0  0  0  0  0
  -10.5233    7.7922  -25.0733 N   0  0  0  0  0  0  0  0  0  0  0  0
  -10.7065    8.3273  -26.3133 C   0  0  0  0  0  0  0  0  0  0  0  0
  -10.6135    7.5439  -27.4852 N   0  0  0  0  0  0  0  0  0  0  0  0
  -12.9980   13.9454  -25.9929 O   0  0  0  0  0  0  0  0  0  0  0  0
  -13.0542   15.9132  -24.2333 O   0  0  0  0  0  0  0  0  0  0  0  0
  -11.7593   12.9485  -21.5769 H   0  0  0  0  0  0  0  0  0  0  0  0
  -13.4305   13.4951  -21.1045 H   0  0  0  0  0  0  0  0  0  0  0  0
  -14.0369   13.8619  -23.3107 H   0  0  0  0  0  0  0  0  0  0  0  0
  -11.3139   15.1015  -23.4126 H   0  0  0  0  0  0  0  0  0  0  0  0
  -11.0164   14.5524  -25.7598 H   0  0  0  0  0  0  0  0  0  0  0  0
  -10.6138   12.8799  -24.0050 H   0  0  0  0  0  0  0  0  0  0  0  0
  -11.6645   12.6218  -27.5312 H   0  0  0  0  0  0  0  0  0  0  0  0
  -10.4683    8.1266  -22.9584 H   0  0  0  0  0  0  0  0  0  0  0  0
  -11.2221    7.6564  -28.3261 H   0  0  0  0  0  0  0  0  0  0  0  0
   -9.8884    6.7949  -27.5268 H   0  0  0  0  0  0  0  0  0  0  0  0
  -13.1344   14.6329  -26.6628 H   0  0  0  0  0  0  0  0  0  0  0  0
  -13.3184   16.0143  -25.1727 H   0  0  0  0  0  0  0  0  0  0  0  0
  1  2  1  0
  2  3  1  0
  3  4  1  0
  4  5  1  0
  5  6  1  0
  5  7  1  0
  7  8  1  0
  8  9  2  0
  9 10  1  0
 10 11  2  0
 11 12  1  0
 12 13  2  0
 13 14  1  0
 14 15  2  0
 15 16  1  0
  4 17  1  0
  3 18  1  0
  6  2  1  0
 11  7  1  0
 15 10  1  0
  1 19  1  0
  1 20  1  0
  2 21  1  0
  3 22  1  0
  4 23  1  0
  5 24  1  0
  8 25  1  0
 13 26  1  0
 16 27  1  0
 16 28  1  0
 17 29  1  0
 18 30  1  0
M  RAD  1   1   2
M  END
$$$$

     RDKit          3D

 30 32  0  0  0  0  0  0  0  0999 V2000
  -11.7410   14.1219  -22.1306 C   0  0  0  0  0  3  0  0  0  0  0  0
  -12.8164   13.5868  -23.0373 C   0  0  0  0  0  0  0  0  0  0  0  0
  -13.0402   14.5365  -24.1774 C   0  0  0  0  0  0  0  0  0  0  0  0
  -12.0075   14.0723  -25.1885 C   0  0  0  0  0  0  0  0  0  0  0  0
  -11.5090   12.7977  -24.5919 C   0  0  0  0  0  0  0  0  0  0  0  0
  -12.4050   12.3958  -23.6156 O   0  0  0  0  0  0  0  0  0  0  0  0
  -11.3485   11.7514  -25.5874 N   0  0  0  0  0  0  0  0  0  0  0  0
  -11.3634   11.8308  -26.9266 C   0  0  0  0  0  0  0  0  0  0  0  0
  -11.1743   10.6054  -27.4515 N   0  0  0  0  0  0  0  0  0  0  0  0
  -11.0419    9.7653  -26.4077 C   0  0  0  0  0  0  0  0  0  0  0  0
  -11.1470   10.4571  -25.2225 C   0  0  0  0  0  0  0  0  0  0  0  0
  -11.0479    9.8329  -24.0327 N   0  0  0  0  0  0  0  0  0  0  0  0
  -10.8402    8.4956  -23.9620 C   0  0  0  0  0  0  0  0  0  0  0  0
  -10.7356    7.8073  -25.1109 N   0  0  0  0  0  0  0  0  0  0  0  0
  -10.8283    8.3898  -26.3121 C   0  0  0  0  0  0  0  0  0  0  0  0
  -10.7205    7.6793  -27.5356 N   0  0  0  0  0  0  0  0  0  0  0  0
  -11.0290   15.0613  -25.2459 O   0  0  0  0  0  0  0  0  0  0  0  0
  -14.3313   14.4207  -24.7198 O   0  0  0  0  0  0  0  0  0  0  0  0
  -10.8942   14.5698  -22.6924 H   0  0  0  0  0  0  0  0  0  0  0  0
  -12.2070   14.9834  -21.5706 H   0  0  0  0  0  0  0  0  0  0  0  0
  -13.7373   13.4525  -22.4191 H   0  0  0  0  0  0  0  0  0  0  0  0
  -12.8942   15.5888  -23.8811 H   0  0  0  0  0  0  0  0  0  0  0  0
  -12.4943   13.9237  -26.1642 H   0  0  0  0  0  0  0  0  0  0  0  0
  -10.5123   12.9096  -24.1040 H   0  0  0  0  0  0  0  0  0  0  0  0
  -11.5054   12.7387  -27.4982 H   0  0  0  0  0  0  0  0  0  0  0  0
  -10.7590    7.9839  -23.0250 H   0  0  0  0  0  0  0  0  0  0  0  0
  -11.4506    7.0155  -27.8609 H   0  0  0  0  0  0  0  0  0  0  0  0
   -9.8732    7.8414  -28.1147 H   0  0  0  0  0  0  0  0  0  0  0  0
  -10.7196   15.1225  -26.1679 H   0  0  0  0  0  0  0  0  0  0  0  0
  -14.2998   14.9201  -25.5882 H   0  0  0  0  0  0  0  0  0  0  0  0
  1  2  1  0
  2  3  1  0
  3  4  1  0
  4  5  1  0
  5  6  1  0
  5  7  1  0
  7  8  1  0
  8  9  2  0
  9 10  1  0
 10 11  2  0
 11 12  1  0
 12 13  2  0
 13 14  1  0
 14 15  2  0
 15 16  1  0
  4 17  1  0
  3 18  1  0
  6  2  1  0
 11  7  1  0
 15 10  1  0
  1 19  1  0
  1 20  1  0
  2 21  1  0
  3 22  1  0
  4 23  1  0
  5 24  1  0
  8 25  1  0
 13 26  1  0
 16 27  1  0
 16 28  1  0
 17 29  1  0
 18 30  1  0
M  RAD  1   1   2
M  END
$$$$

     RDKit          3D

 30 32  0  0  0  0  0  0  0  0999 V2000
  -14.4454   15.0366  -24.2366 C   0  0  0  0  0  3  0  0  0  0  0  0
  -13.3226   14.0925  -24.6551 C   0  0  0  0  0  0  0  0  0  0  0  0
  -11.9658   14.6859  -24.2705 C   0  0  0  0  0  0  0  0  0  0  0  0
  -11.1497   13.4024  -24.1021 C   0  0  0  0  0  0  0  0  0  0  0  0
  -12.1790   12.3302  -23.8866 C   0  0  0  0  0  0  0  0  0  0  0  0
  -13.3971   12.9648  -23.8755 O   0  0  0  0  0  0  0  0  0  0  0  0
  -12.1199   11.2687  -24.8514 N   0  0  0  0  0  0  0  0  0  0  0  0
  -13.1113   10.9053  -25.7015 C   0  0  0  0  0  0  0  0  0  0  0  0
  -12.6891    9.8825  -26.4434 N   0  0  0  0  0  0  0  0  0  0  0  0
  -11.4293    9.5584  -26.0998 C   0  0  0  0  0  0  0  0  0  0  0  0
  -11.0970   10.4509  -25.0923 C   0  0  0  0  0  0  0  0  0  0  0  0
   -9.8550   10.3241  -24.5728 N   0  0  0  0  0  0  0  0  0  0  0  0
   -9.0093    9.3811  -25.0222 C   0  0  0  0  0  0  0  0  0  0  0  0
   -9.3434    8.5194  -26.0017 N   0  0  0  0  0  0  0  0  0  0  0  0
  -10.5665    8.5920  -26.5622 C   0  0  0  0  0  0  0  0  0  0  0  0
  -10.9656    7.6952  -27.6080 N   0  0  0  0  0  0  0  0  0  0  0  0
  -10.3415   13.1685  -25.1985 O   0  0  0  0  0  0  0  0  0  0  0  0
  -12.1394   15.3497  -23.0759 O   0  0  0  0  0  0  0  0  0  0  0  0
  -14.3455   15.1981  -23.1383 H   0  0  0  0  0  0  0  0  0  0  0  0
  -15.3975   14.5009  -24.3892 H   0  0  0  0  0  0  0  0  0  0  0  0
  -13.2933   13.9200  -25.7294 H   0  0  0  0  0  0  0  0  0  0  0  0
  -11.5601   15.3221  -25.0838 H   0  0  0  0  0  0  0  0  0  0  0  0
  -10.4965   13.5730  -23.2217 H   0  0  0  0  0  0  0  0  0  0  0  0
  -12.0087   11.9384  -22.8404 H   0  0  0  0  0  0  0  0  0  0  0  0
  -14.1008   11.3401  -25.8025 H   0  0  0  0  0  0  0  0  0  0  0  0
   -7.9987    9.2608  -24.6156 H   0  0  0  0  0  0  0  0  0  0  0  0
  -11.0279    6.6875  -27.3831 H   0  0  0  0  0  0  0  0  0  0  0  0
  -11.1747    8.1032  -28.5484 H   0  0  0  0  0  0  0  0  0  0  0  0
   -9.3799   13.3403  -25.0097 H   0  0  0  0  0  0  0  0  0  0  0  0
  -11.3538   15.3167  -22.4854 H   0  0  0  0  0  0  0  0  0  0  0  0
  1  2  1  0
  2  3  1  0
  3  4  1  0
  4  5  1  0
  5  6  1  0
  5  7  1  0
  7  8  1  0
  8  9  2  0
  9 10  1  0
 10 11  2  0
 11 12  1  0
 12 13  2  0
 13 14  1  0
 14 15  2  0
 15 16  1  0
  4 17  1  0
  3 18  1  0
  6  2  1  0
 11  7  1  0
 15 10  1  0
  1 19  1  0
  1 20  1  0
  2 21  1  0
  3 22  1  0
  4 23  1  0
  5 24  1  0
  8 25  1  0
 13 26  1  0
 16 27  1  0
 16 28  1  0
 17 29  1  0
 18 30  1  0
M  RAD  1   1   2
M  END
$$$$

     RDKit          3D

 30 32  0  0  0  0  0  0  0  0999 V2000
  -11.7495   14.5380  -22.2048 C   0  0  0  0  0  3  0  0  0  0  0  0
  -11.4427   13.6797  -23.4387 C   0  0  0  0  0  0  0  0  0  0  0  0
  -11.8917   14.3604  -24.6927 C   0  0  0  0  0  0  0  0  0  0  0  0
  -13.2652   13.7077  -24.9023 C   0  0  0  0  0  0  0  0  0  0  0  0
  -12.9578   12.3205  -24.3691 C   0  0  0  0  0  0  0  0  0  0  0  0
  -12.0831   12.4767  -23.3291 O   0  0  0  0  0  0  0  0  0  0  0  0
  -12.3762   11.4778  -25.3952 N   0  0  0  0  0  0  0  0  0  0  0  0
  -12.5685   11.5248  -26.7275 C   0  0  0  0  0  0  0  0  0  0  0  0
  -11.8257   10.5513  -27.2953 N   0  0  0  0  0  0  0  0  0  0  0  0
  -11.1541    9.8740  -26.3451 C   0  0  0  0  0  0  0  0  0  0  0  0
  -11.5051   10.4626  -25.1479 C   0  0  0  0  0  0  0  0  0  0  0  0
  -10.9505    9.9487  -24.0344 N   0  0  0  0  0  0  0  0  0  0  0  0
  -10.0902    8.9032  -24.1005 C   0  0  0  0  0  0  0  0  0  0  0  0
   -9.7586    8.3408  -25.2767 N   0  0  0  0  0  0  0  0  0  0  0  0
  -10.2801    8.8099  -26.4262 C   0  0  0  0  0  0  0  0  0  0  0  0
   -9.9359    8.2224  -27.6744 N   0  0  0  0  0  0  0  0  0  0  0  0
  -14.2275   14.3459  -24.1422 O   0  0  0  0  0  0  0  0  0  0  0  0
  -11.0648   14.0637  -25.7539 O   0  0  0  0  0  0  0  0  0  0  0  0
  -12.7897   14.9231  -22.2686 H   0  0  0  0  0  0  0  0  0  0  0  0
  -11.0755   15.4288  -22.1733 H   0  0  0  0  0  0  0  0  0  0  0  0
  -10.3301   13.5372  -23.4121 H   0  0  0  0  0  0  0  0  0  0  0  0
  -12.0949   15.4380  -24.5702 H   0  0  0  0  0  0  0  0  0  0  0  0
  -13.5794   13.7205  -25.9416 H   0  0  0  0  0  0  0  0  0  0  0  0
  -13.8878   11.8505  -23.9663 H   0  0  0  0  0  0  0  0  0  0  0  0
  -13.2033   12.2150  -27.2657 H   0  0  0  0  0  0  0  0  0  0  0  0
   -9.6415    8.4859  -23.2111 H   0  0  0  0  0  0  0  0  0  0  0  0
   -8.9616    8.3860  -28.0299 H   0  0  0  0  0  0  0  0  0  0  0  0
  -10.6236    7.6481  -28.2214 H   0  0  0  0  0  0  0  0  0  0  0  0
  -14.7253   13.7060  -23.5545 H   0  0  0  0  0  0  0  0  0  0  0  0
  -10.1618   13.7662  -25.4606 H   0  0  0  0  0  0  0  0  0  0  0  0
  1  2  1  0
  2  3  1  0
  3  4  1  0
  4  5  1  0
  5  6  1  0
  5  7  1  0
  7  8  1  0
  8  9  2  0
  9 10  1  0
 10 11  2  0
 11 12  1  0
 12 13  2  0
 13 14  1  0
 14 15  2  0
 15 16  1  0
  4 17  1  0
  3 18  1  0
  6  2  1  0
 11  7  1  0
 15 10  1  0
  1 19  1  0
  1 20  1  0
  2 21  1  0
  3 22  1  0
  4 23  1  0
  5 24  1  0
  8 25  1  0
 13 26  1  0
 16 27  1  0
 16 28  1  0
 17 29  1  0
 18 30  1  0
M  RAD  1   1   2
M  END
$$$$

     RDKit          3D

 30 32  0  0  0  0  0  0  0  0999 V2000
  -13.1597   15.5647  -25.6521 C   0  0  0  0  0  3  0  0  0  0  0  0
  -13.2106   14.5049  -24.5546 C   0  0  0  0  0  0  0  0  0  0  0  0
  -11.9124   14.5769  -23.8049 C   0  0  0  0  0  0  0  0  0  0  0  0
  -11.3147   13.1964  -24.1114 C   0  0  0  0  0  0  0  0  0  0  0  0
  -12.5885   12.4166  -24.3368 C   0  0  0  0  0  0  0  0  0  0  0  0
  -13.2919   13.2756  -25.1695 O   0  0  0  0  0  0  0  0  0  0  0  0
  -12.3774   11.1130  -24.8873 N   0  0  0  0  0  0  0  0  0  0  0  0
  -13.3230   10.1701  -24.9527 C   0  0  0  0  0  0  0  0  0  0  0  0
  -12.7964    9.0728  -25.5217 N   0  0  0  0  0  0  0  0  0  0  0  0
  -11.5079    9.3085  -25.8242 C   0  0  0  0  0  0  0  0  0  0  0  0
  -11.2566   10.5980  -25.4191 C   0  0  0  0  0  0  0  0  0  0  0  0
  -10.0398   11.1227  -25.5919 N   0  0  0  0  0  0  0  0  0  0  0  0
   -9.0632   10.3944  -26.1596 C   0  0  0  0  0  0  0  0  0  0  0  0
   -9.2905    9.1324  -26.5617 N   0  0  0  0  0  0  0  0  0  0  0  0
  -10.4935    8.5625  -26.4099 C   0  0  0  0  0  0  0  0  0  0  0  0
  -10.8077    7.2543  -26.8029 N   0  0  0  0  0  0  0  0  0  0  0  0
  -10.5529   12.7165  -23.0786 O   0  0  0  0  0  0  0  0  0  0  0  0
  -12.1403   14.6276  -22.4170 O   0  0  0  0  0  0  0  0  0  0  0  0
  -13.8886   16.3658  -25.4434 H   0  0  0  0  0  0  0  0  0  0  0  0
  -13.3926   15.1299  -26.6354 H   0  0  0  0  0  0  0  0  0  0  0  0
  -14.0967   14.6736  -23.8802 H   0  0  0  0  0  0  0  0  0  0  0  0
  -11.2647   15.3874  -24.1303 H   0  0  0  0  0  0  0  0  0  0  0  0
  -10.7759   13.3221  -25.0680 H   0  0  0  0  0  0  0  0  0  0  0  0
  -13.1635   12.3415  -23.3938 H   0  0  0  0  0  0  0  0  0  0  0  0
  -14.3532   10.2138  -24.6243 H   0  0  0  0  0  0  0  0  0  0  0  0
   -8.0523   10.7954  -26.3163 H   0  0  0  0  0  0  0  0  0  0  0  0
  -10.6931    6.4713  -26.1416 H   0  0  0  0  0  0  0  0  0  0  0  0
  -11.1551    7.0732  -27.7570 H   0  0  0  0  0  0  0  0  0  0  0  0
   -9.9130   13.4088  -22.7888 H   0  0  0  0  0  0  0  0  0  0  0  0
  -13.1275   14.6164  -22.2194 H   0  0  0  0  0  0  0  0  0  0  0  0
  1  2  1  0
  2  3  1  0
  3  4  1  0
  4  5  1  0
  5  6  1  0
  5  7  1  0
  7  8  1  0
  8  9  2  0
  9 10  1  0
 10 11  2  0
 11 12  1  0
 12 13  2  0
 13 14  1  0
 14 15  2  0
 15 16  1  0
  4 17  1  0
  3 18  1  0
  6  2  1  0
 11  7  1  0
 15 10  1  0
  1 19  1  0
  1 20  1  0
  2 21  1  0
  3 22  1  0
  4 23  1  0
  5 24  1  0
  8 25  1  0
 13 26  1  0
 16 27  1  0
 16 28  1  0
 17 29  1  0
 18 30  1  0
M  RAD  1   1   2
M  END
$$$$

     RDKit          3D

 30 32  0  0  0  0  0  0  0  0999 V2000
  -12.7150   13.8166  -21.6463 C   0  0  0  0  0  3  0  0  0  0  0  0
  -12.1648   13.8904  -23.0335 C   0  0  0  0  0  0  0  0  0  0  0  0
  -13.2238   14.1775  -24.0636 C   0  0  0  0  0  0  0  0  0  0  0  0
  -12.6798   13.5315  -25.2959 C   0  0  0  0  0  0  0  0  0  0  0  0
  -11.3678   12.9283  -24.7913 C   0  0  0  0  0  0  0  0  0  0  0  0
  -11.6677   12.6495  -23.4839 O   0  0  0  0  0  0  0  0  0  0  0  0
  -11.0759   11.7612  -25.5827 N   0  0  0  0  0  0  0  0  0  0  0  0
  -10.6418   11.8374  -26.8574 C   0  0  0  0  0  0  0  0  0  0  0  0
  -10.4534   10.6106  -27.3427 N   0  0  0  0  0  0  0  0  0  0  0  0
  -10.7760    9.7510  -26.3522 C   0  0  0  0  0  0  0  0  0  0  0  0
  -11.1683   10.4594  -25.2420 C   0  0  0  0  0  0  0  0  0  0  0  0
  -11.5502    9.8886  -24.0934 N   0  0  0  0  0  0  0  0  0  0  0  0
  -11.5327    8.5243  -24.0710 C   0  0  0  0  0  0  0  0  0  0  0  0
  -11.1546    7.8066  -25.1391 N   0  0  0  0  0  0  0  0  0  0  0  0
  -10.7716    8.3782  -26.2909 C   0  0  0  0  0  0  0  0  0  0  0  0
  -10.3658    7.6509  -27.4395 N   0  0  0  0  0  0  0  0  0  0  0  0
  -12.3840   14.3995  -26.3169 O   0  0  0  0  0  0  0  0  0  0  0  0
  -13.4341   15.5463  -24.2136 O   0  0  0  0  0  0  0  0  0  0  0  0
  -12.7688   14.8508  -21.2466 H   0  0  0  0  0  0  0  0  0  0  0  0
  -12.0699   13.2243  -20.9882 H   0  0  0  0  0  0  0  0  0  0  0  0
  -11.3340   14.6145  -23.1448 H   0  0  0  0  0  0  0  0  0  0  0  0
  -14.1540   13.6604  -23.7198 H   0  0  0  0  0  0  0  0  0  0  0  0
  -13.3107   12.6631  -25.6223 H   0  0  0  0  0  0  0  0  0  0  0  0
  -10.5510   13.6824  -24.8061 H   0  0  0  0  0  0  0  0  0  0  0  0
  -10.4634   12.7574  -27.4293 H   0  0  0  0  0  0  0  0  0  0  0  0
  -11.8277    7.9823  -23.1782 H   0  0  0  0  0  0  0  0  0  0  0  0
  -10.8625    7.8360  -28.3455 H   0  0  0  0  0  0  0  0  0  0  0  0
   -9.6023    6.9493  -27.4144 H   0  0  0  0  0  0  0  0  0  0  0  0
  -11.5093   14.8196  -26.1265 H   0  0  0  0  0  0  0  0  0  0  0  0
  -13.9738   15.6989  -25.0241 H   0  0  0  0  0  0  0  0  0  0  0  0
  1  2  1  0
  2  3  1  0
  3  4  1  0
  4  5  1  0
  5  6  1  0
  5  7  1  0
  7  8  1  0
  8  9  2  0
  9 10  1  0
 10 11  2  0
 11 12  1  0
 12 13  2  0
 13 14  1  0
 14 15  2  0
 15 16  1  0
  4 17  1  0
  3 18  1  0
  6  2  1  0
 11  7  1  0
 15 10  1  0
  1 19  1  0
  1 20  1  0
  2 21  1  0
  3 22  1  0
  4 23  1  0
  5 24  1  0
  8 25  1  0
 13 26  1  0
 16 27  1  0
 16 28  1  0
 17 29  1  0
 18 30  1  0
M  RAD  1   1   2
M  END
$$$$

     RDKit          3D

 30 32  0  0  0  0  0  0  0  0999 V2000
  -10.8035   15.4605  -23.0823 C   0  0  0  0  0  3  0  0  0  0  0  0
  -11.5585   14.6427  -24.0981 C   0  0  0  0  0  0  0  0  0  0  0  0
  -13.0146   14.4665  -23.7200 C   0  0  0  0  0  0  0  0  0  0  0  0
  -13.3307   13.2403  -24.5902 C   0  0  0  0  0  0  0  0  0  0  0  0
  -12.0247   12.4725  -24.3934 C   0  0  0  0  0  0  0  0  0  0  0  0
  -11.0209   13.4004  -24.2990 O   0  0  0  0  0  0  0  0  0  0  0  0
  -11.8240   11.4742  -25.4066 N   0  0  0  0  0  0  0  0  0  0  0  0
  -12.2823   11.4560  -26.6807 C   0  0  0  0  0  0  0  0  0  0  0  0
  -11.8641   10.3291  -27.3035 N   0  0  0  0  0  0  0  0  0  0  0  0
  -11.1243    9.6157  -26.4064 C   0  0  0  0  0  0  0  0  0  0  0  0
  -11.1087   10.3383  -25.2356 C   0  0  0  0  0  0  0  0  0  0  0  0
  -10.4488    9.8811  -24.1557 N   0  0  0  0  0  0  0  0  0  0  0  0
   -9.8041    8.7085  -24.2341 C   0  0  0  0  0  0  0  0  0  0  0  0
   -9.8038    7.9764  -25.3762 N   0  0  0  0  0  0  0  0  0  0  0  0
  -10.4561    8.4112  -26.4704 C   0  0  0  0  0  0  0  0  0  0  0  0
  -10.4767    7.6789  -27.6699 N   0  0  0  0  0  0  0  0  0  0  0  0
  -14.3823   12.5134  -24.0795 O   0  0  0  0  0  0  0  0  0  0  0  0
  -13.7989   15.5423  -24.0545 O   0  0  0  0  0  0  0  0  0  0  0  0
  -11.4154   15.8281  -22.2561 H   0  0  0  0  0  0  0  0  0  0  0  0
  -10.2266   16.2256  -23.6196 H   0  0  0  0  0  0  0  0  0  0  0  0
  -11.5714   15.1757  -25.0940 H   0  0  0  0  0  0  0  0  0  0  0  0
  -13.1369   14.1232  -22.6732 H   0  0  0  0  0  0  0  0  0  0  0  0
  -13.4245   13.4971  -25.6455 H   0  0  0  0  0  0  0  0  0  0  0  0
  -12.1262   11.9994  -23.3726 H   0  0  0  0  0  0  0  0  0  0  0  0
  -12.8922   12.2180  -27.1488 H   0  0  0  0  0  0  0  0  0  0  0  0
   -9.2861    8.3819  -23.3360 H   0  0  0  0  0  0  0  0  0  0  0  0
   -9.8120    7.9070  -28.4370 H   0  0  0  0  0  0  0  0  0  0  0  0
  -11.1593    6.9046  -27.7932 H   0  0  0  0  0  0  0  0  0  0  0  0
  -15.2179   12.7351  -24.5580 H   0  0  0  0  0  0  0  0  0  0  0  0
  -14.7160   15.3066  -24.3512 H   0  0  0  0  0  0  0  0  0  0  0  0
  1  2  1  0
  2  3  1  0
  3  4  1  0
  4  5  1  0
  5  6  1  0
  5  7  1  0
  7  8  1  0
  8  9  2  0
  9 10  1  0
 10 11  2  0
 11 12  1  0
 12 13  2  0
 13 14  1  0
 14 15  2  0
 15 16  1  0
  4 17  1  0
  3 18  1  0
  6  2  1  0
 11  7  1  0
 15 10  1  0
  1 19  1  0
  1 20  1  0
  2 21  1  0
  3 22  1  0
  4 23  1  0
  5 24  1  0
  8 25  1  0
 13 26  1  0
 16 27  1  0
 16 28  1  0
 17 29  1  0
 18 30  1  0
M  RAD  1   1   2
M  END
$$$$

     RDKit          3D

 30 32  0  0  0  0  0  0  0  0999 V2000
  -10.8557   15.4161  -23.1457 C   0  0  0  0  0  3  0  0  0  0  0  0
  -11.8691   14.7771  -24.0705 C   0  0  0  0  0  0  0  0  0  0  0  0
  -13.0053   14.1535  -23.2977 C   0  0  0  0  0  0  0  0  0  0  0  0
  -13.2650   12.9217  -24.1670 C   0  0  0  0  0  0  0  0  0  0  0  0
  -11.8253   12.5814  -24.4845 C   0  0  0  0  0  0  0  0  0  0  0  0
  -11.3274   13.8188  -24.8837 O   0  0  0  0  0  0  0  0  0  0  0  0
  -11.6623   11.5552  -25.4399 N   0  0  0  0  0  0  0  0  0  0  0  0
  -12.0601   11.5580  -26.7154 C   0  0  0  0  0  0  0  0  0  0  0  0
  -11.7143   10.3905  -27.2864 N   0  0  0  0  0  0  0  0  0  0  0  0
  -11.0851    9.6066  -26.3929 C   0  0  0  0  0  0  0  0  0  0  0  0
  -11.0633   10.3702  -25.2215 C   0  0  0  0  0  0  0  0  0  0  0  0
  -10.4739    9.7891  -24.1632 N   0  0  0  0  0  0  0  0  0  0  0  0
   -9.9244    8.5678  -24.1566 C   0  0  0  0  0  0  0  0  0  0  0  0
   -9.9648    7.8626  -25.3034 N   0  0  0  0  0  0  0  0  0  0  0  0
  -10.5287    8.3488  -26.4165 C   0  0  0  0  0  0  0  0  0  0  0  0
  -10.5348    7.5535  -27.5828 N   0  0  0  0  0  0  0  0  0  0  0  0
  -13.8603   13.3732  -25.3277 O   0  0  0  0  0  0  0  0  0  0  0  0
  -14.1073   14.9640  -23.2006 O   0  0  0  0  0  0  0  0  0  0  0  0
  -10.7916   16.5131  -23.3024 H   0  0  0  0  0  0  0  0  0  0  0  0
  -11.0475   15.2059  -22.0808 H   0  0  0  0  0  0  0  0  0  0  0  0
  -12.3229   15.6029  -24.6845 H   0  0  0  0  0  0  0  0  0  0  0  0
  -12.6419   13.7814  -22.3052 H   0  0  0  0  0  0  0  0  0  0  0  0
  -13.8043   12.1393  -23.6492 H   0  0  0  0  0  0  0  0  0  0  0  0
  -11.3371   12.3446  -23.5161 H   0  0  0  0  0  0  0  0  0  0  0  0
  -12.5818   12.3307  -27.2797 H   0  0  0  0  0  0  0  0  0  0  0  0
   -9.4647    8.1478  -23.2833 H   0  0  0  0  0  0  0  0  0  0  0  0
   -9.6394    7.3104  -28.0989 H   0  0  0  0  0  0  0  0  0  0  0  0
  -11.4391    7.1938  -27.9499 H   0  0  0  0  0  0  0  0  0  0  0  0
  -13.2233   14.0477  -25.7274 H   0  0  0  0  0  0  0  0  0  0  0  0
  -14.8935   14.3602  -23.0212 H   0  0  0  0  0  0  0  0  0  0  0  0
  1  2  1  0
  2  3  1  0
  3  4  1  0
  4  5  1  0
  5  6  1  0
  5  7  1  0
  7  8  1  0
  8  9  2  0
  9 10  1  0
 10 11  2  0
 11 12  1  0
 12 13  2  0
 13 14  1  0
 14 15  2  0
 15 16  1  0
  4 17  1  0
  3 18  1  0
  6  2  1  0
 11  7  1  0
 15 10  1  0
  1 19  1  0
  1 20  1  0
  2 21  1  0
  3 22  1  0
  4 23  1  0
  5 24  1  0
  8 25  1  0
 13 26  1  0
 16 27  1  0
 16 28  1  0
 17 29  1  0
 18 30  1  0
M  RAD  1   1   2
M  END
$$$$

     RDKit          3D

 30 32  0  0  0  0  0  0  0  0999 V2000
  -10.8585   15.5194  -23.8983 C   0  0  0  0  0  3  0  0  0  0  0  0
  -11.9974   14.7202  -24.4685 C   0  0  0  0  0  0  0  0  0  0  0  0
  -12.8114   14.1743  -23.3342 C   0  0  0  0  0  0  0  0  0  0  0  0
  -12.6966   12.6628  -23.5717 C   0  0  0  0  0  0  0  0  0  0  0  0
  -12.5882   12.7324  -25.0973 C   0  0  0  0  0  0  0  0  0  0  0  0
  -11.5691   13.6472  -25.2369 O   0  0  0  0  0  0  0  0  0  0  0  0
  -12.3244   11.4534  -25.6830 N   0  0  0  0  0  0  0  0  0  0  0  0
  -13.1451   10.8508  -26.5588 C   0  0  0  0  0  0  0  0  0  0  0  0
  -12.6159    9.6728  -26.9166 N   0  0  0  0  0  0  0  0  0  0  0  0
  -11.4583    9.5674  -26.2441 C   0  0  0  0  0  0  0  0  0  0  0  0
  -11.2612   10.6859  -25.4603 C   0  0  0  0  0  0  0  0  0  0  0  0
  -10.1562   10.7491  -24.7218 N   0  0  0  0  0  0  0  0  0  0  0  0
   -9.2461    9.7672  -24.7225 C   0  0  0  0  0  0  0  0  0  0  0  0
   -9.4466    8.6776  -25.4914 N   0  0  0  0  0  0  0  0  0  0  0  0
  -10.5296    8.5619  -26.2468 C   0  0  0  0  0  0  0  0  0  0  0  0
  -10.7392    7.4139  -27.0559 N   0  0  0  0  0  0  0  0  0  0  0  0
  -11.5318   12.2464  -22.9798 O   0  0  0  0  0  0  0  0  0  0  0  0
  -14.1513   14.5052  -23.5679 O   0  0  0  0  0  0  0  0  0  0  0  0
  -10.3941   16.1743  -24.6416 H   0  0  0  0  0  0  0  0  0  0  0  0
  -10.1227   14.8419  -23.4684 H   0  0  0  0  0  0  0  0  0  0  0  0
  -12.6104   15.3690  -25.1547 H   0  0  0  0  0  0  0  0  0  0  0  0
  -12.4591   14.4611  -22.3470 H   0  0  0  0  0  0  0  0  0  0  0  0
  -13.5945   12.1278  -23.2518 H   0  0  0  0  0  0  0  0  0  0  0  0
  -13.5355   13.1772  -25.4438 H   0  0  0  0  0  0  0  0  0  0  0  0
  -14.0893   11.2270  -26.9364 H   0  0  0  0  0  0  0  0  0  0  0  0
   -8.3373    9.8167  -24.1166 H   0  0  0  0  0  0  0  0  0  0  0  0
  -10.8478    7.5126  -28.0786 H   0  0  0  0  0  0  0  0  0  0  0  0
  -10.7777    6.4886  -26.5822 H   0  0  0  0  0  0  0  0  0  0  0  0
  -11.1593   12.8978  -22.3294 H   0  0  0  0  0  0  0  0  0  0  0  0
  -14.2696   15.0395  -24.3961 H   0  0  0  0  0  0  0  0  0  0  0  0
  1  2  1  0
  2  3  1  0
  3  4  1  0
  4  5  1  0
  5  6  1  0
  5  7  1  0
  7  8  1  0
  8  9  2  0
  9 10  1  0
 10 11  2  0
 11 12  1  0
 12 13  2  0
 13 14  1  0
 14 15  2  0
 15 16  1  0
  4 17  1  0
  3 18  1  0
  6  2  1  0
 11  7  1  0
 15 10  1  0
  1 19  1  0
  1 20  1  0
  2 21  1  0
  3 22  1  0
  4 23  1  0
  5 24  1  0
  8 25  1  0
 13 26  1  0
 16 27  1  0
 16 28  1  0
 17 29  1  0
 18 30  1  0
M  RAD  1   1   2
M  END
$$$$

     RDKit          3D

 30 32  0  0  0  0  0  0  0  0999 V2000
  -11.4352   14.4239  -22.5245 C   0  0  0  0  0  3  0  0  0  0  0  0
  -11.6336   14.7719  -23.9616 C   0  0  0  0  0  0  0  0  0  0  0  0
  -13.1220   14.6300  -24.3067 C   0  0  0  0  0  0  0  0  0  0  0  0
  -13.2853   13.1151  -24.1320 C   0  0  0  0  0  0  0  0  0  0  0  0
  -11.8715   12.6305  -24.2843 C   0  0  0  0  0  0  0  0  0  0  0  0
  -11.1091   13.7067  -24.7234 O   0  0  0  0  0  0  0  0  0  0  0  0
  -11.7430   11.5808  -25.2768 N   0  0  0  0  0  0  0  0  0  0  0  0
  -12.3002   11.5810  -26.5000 C   0  0  0  0  0  0  0  0  0  0  0  0
  -11.9681   10.4412  -27.1550 N   0  0  0  0  0  0  0  0  0  0  0  0
  -11.1942    9.7054  -26.3496 C   0  0  0  0  0  0  0  0  0  0  0  0
  -11.0599   10.4250  -25.1808 C   0  0  0  0  0  0  0  0  0  0  0  0
  -10.3118    9.8839  -24.1955 N   0  0  0  0  0  0  0  0  0  0  0  0
   -9.7213    8.6856  -24.3543 C   0  0  0  0  0  0  0  0  0  0  0  0
   -9.8635    7.9908  -25.5102 N   0  0  0  0  0  0  0  0  0  0  0  0
  -10.5909    8.4650  -26.5314 C   0  0  0  0  0  0  0  0  0  0  0  0
  -10.7678    7.7775  -27.7548 N   0  0  0  0  0  0  0  0  0  0  0  0
  -13.8132   12.8303  -22.8774 O   0  0  0  0  0  0  0  0  0  0  0  0
  -13.3364   14.9634  -25.6375 O   0  0  0  0  0  0  0  0  0  0  0  0
  -10.5601   14.9292  -22.0944 H   0  0  0  0  0  0  0  0  0  0  0  0
  -12.3572   14.5145  -21.9507 H   0  0  0  0  0  0  0  0  0  0  0  0
  -11.2329   15.7366  -24.2673 H   0  0  0  0  0  0  0  0  0  0  0  0
  -13.7472   15.1934  -23.6007 H   0  0  0  0  0  0  0  0  0  0  0  0
  -13.9226   12.6824  -24.9110 H   0  0  0  0  0  0  0  0  0  0  0  0
  -11.5424   12.2564  -23.2868 H   0  0  0  0  0  0  0  0  0  0  0  0
  -12.9167   12.3997  -26.8594 H   0  0  0  0  0  0  0  0  0  0  0  0
   -9.1260    8.2959  -23.5205 H   0  0  0  0  0  0  0  0  0  0  0  0
   -9.9809    7.2024  -28.1205 H   0  0  0  0  0  0  0  0  0  0  0  0
  -11.6406    7.8037  -28.3266 H   0  0  0  0  0  0  0  0  0  0  0  0
  -13.3024   12.1325  -22.3966 H   0  0  0  0  0  0  0  0  0  0  0  0
  -12.5111   15.2999  -26.0851 H   0  0  0  0  0  0  0  0  0  0  0  0
  1  2  1  0
  2  3  1  0
  3  4  1  0
  4  5  1  0
  5  6  1  0
  5  7  1  0
  7  8  1  0
  8  9  2  0
  9 10  1  0
 10 11  2  0
 11 12  1  0
 12 13  2  0
 13 14  1  0
 14 15  2  0
 15 16  1  0
  4 17  1  0
  3 18  1  0
  6  2  1  0
 11  7  1  0
 15 10  1  0
  1 19  1  0
  1 20  1  0
  2 21  1  0
  3 22  1  0
  4 23  1  0
  5 24  1  0
  8 25  1  0
 13 26  1  0
 16 27  1  0
 16 28  1  0
 17 29  1  0
 18 30  1  0
M  RAD  1   1   2
M  END
$$$$

     RDKit          3D

 30 32  0  0  0  0  0  0  0  0999 V2000
  -14.3629   14.9952  -23.6100 C   0  0  0  0  0  3  0  0  0  0  0  0
  -13.1932   14.5033  -24.4113 C   0  0  0  0  0  0  0  0  0  0  0  0
  -11.9966   14.3680  -23.5014 C   0  0  0  0  0  0  0  0  0  0  0  0
  -11.2485   13.2111  -24.1228 C   0  0  0  0  0  0  0  0  0  0  0  0
  -12.0738   12.9190  -25.3537 C   0  0  0  0  0  0  0  0  0  0  0  0
  -13.3596   13.2237  -24.9083 O   0  0  0  0  0  0  0  0  0  0  0  0
  -12.0488   11.5385  -25.7321 N   0  0  0  0  0  0  0  0  0  0  0  0
  -13.1013   10.9164  -26.3162 C   0  0  0  0  0  0  0  0  0  0  0  0
  -12.7453    9.6492  -26.5340 N   0  0  0  0  0  0  0  0  0  0  0  0
  -11.4890    9.4706  -26.0956 C   0  0  0  0  0  0  0  0  0  0  0  0
  -11.0331   10.6584  -25.5844 C   0  0  0  0  0  0  0  0  0  0  0  0
   -9.7965   10.7796  -25.0695 N   0  0  0  0  0  0  0  0  0  0  0  0
   -9.0094    9.6702  -25.0752 C   0  0  0  0  0  0  0  0  0  0  0  0
   -9.4347    8.4932  -25.5714 N   0  0  0  0  0  0  0  0  0  0  0  0
  -10.6853    8.3496  -26.0981 C   0  0  0  0  0  0  0  0  0  0  0  0
  -11.1377    7.1172  -26.6205 N   0  0  0  0  0  0  0  0  0  0  0  0
   -9.9657   13.6565  -24.4345 O   0  0  0  0  0  0  0  0  0  0  0  0
  -12.4456   14.0883  -22.2169 O   0  0  0  0  0  0  0  0  0  0  0  0
  -15.2205   14.2879  -23.6131 H   0  0  0  0  0  0  0  0  0  0  0  0
  -14.6848   16.0056  -23.9071 H   0  0  0  0  0  0  0  0  0  0  0  0
  -12.9688   15.2596  -25.1795 H   0  0  0  0  0  0  0  0  0  0  0  0
  -11.4145   15.3084  -23.5368 H   0  0  0  0  0  0  0  0  0  0  0  0
  -11.2183   12.3503  -23.4169 H   0  0  0  0  0  0  0  0  0  0  0  0
  -11.7345   13.5741  -26.1749 H   0  0  0  0  0  0  0  0  0  0  0  0
  -14.0766   11.3415  -26.5760 H   0  0  0  0  0  0  0  0  0  0  0  0
   -8.0278    9.7242  -24.6783 H   0  0  0  0  0  0  0  0  0  0  0  0
  -10.9377    6.2271  -26.1325 H   0  0  0  0  0  0  0  0  0  0  0  0
  -11.6765    7.0909  -27.5010 H   0  0  0  0  0  0  0  0  0  0  0  0
   -9.6722   14.3680  -23.8031 H   0  0  0  0  0  0  0  0  0  0  0  0
  -11.7364   13.9048  -21.5791 H   0  0  0  0  0  0  0  0  0  0  0  0
  1  2  1  0
  2  3  1  0
  3  4  1  0
  4  5  1  0
  5  6  1  0
  5  7  1  0
  7  8  1  0
  8  9  2  0
  9 10  1  0
 10 11  2  0
 11 12  1  0
 12 13  2  0
 13 14  1  0
 14 15  2  0
 15 16  1  0
  4 17  1  0
  3 18  1  0
  6  2  1  0
 11  7  1  0
 15 10  1  0
  1 19  1  0
  1 20  1  0
  2 21  1  0
  3 22  1  0
  4 23  1  0
  5 24  1  0
  8 25  1  0
 13 26  1  0
 16 27  1  0
 16 28  1  0
 17 29  1  0
 18 30  1  0
M  RAD  1   1   2
M  END
$$$$

     RDKit          3D

 30 32  0  0  0  0  0  0  0  0999 V2000
  -13.6050   14.2432  -22.1432 C   0  0  0  0  0  3  0  0  0  0  0  0
  -13.3444   13.7060  -23.5273 C   0  0  0  0  0  0  0  0  0  0  0  0
  -12.6833   14.6834  -24.4290 C   0  0  0  0  0  0  0  0  0  0  0  0
  -11.3916   14.0226  -24.8125 C   0  0  0  0  0  0  0  0  0  0  0  0
  -11.5263   12.6436  -24.2836 C   0  0  0  0  0  0  0  0  0  0  0  0
  -12.6076   12.5674  -23.4543 O   0  0  0  0  0  0  0  0  0  0  0  0
  -11.5534   11.6229  -25.3307 N   0  0  0  0  0  0  0  0  0  0  0  0
  -12.0618   11.6903  -26.5661 C   0  0  0  0  0  0  0  0  0  0  0  0
  -11.8779   10.5177  -27.2194 N   0  0  0  0  0  0  0  0  0  0  0  0
  -11.2421    9.6780  -26.3979 C   0  0  0  0  0  0  0  0  0  0  0  0
  -11.0432   10.3790  -25.2178 C   0  0  0  0  0  0  0  0  0  0  0  0
  -10.4136    9.7853  -24.1769 N   0  0  0  0  0  0  0  0  0  0  0  0
   -9.9821    8.5136  -24.2918 C   0  0  0  0  0  0  0  0  0  0  0  0
  -10.1768    7.8423  -25.4328 N   0  0  0  0  0  0  0  0  0  0  0  0
  -10.7950    8.3771  -26.5012 C   0  0  0  0  0  0  0  0  0  0  0  0
  -10.9929    7.6338  -27.7194 N   0  0  0  0  0  0  0  0  0  0  0  0
  -10.3530   14.7094  -24.2093 O   0  0  0  0  0  0  0  0  0  0  0  0
  -13.4771   14.9923  -25.5428 O   0  0  0  0  0  0  0  0  0  0  0  0
  -13.9690   15.2775  -22.1373 H   0  0  0  0  0  0  0  0  0  0  0  0
  -12.7640   14.0436  -21.4727 H   0  0  0  0  0  0  0  0  0  0  0  0
  -14.3477   13.4395  -23.9618 H   0  0  0  0  0  0  0  0  0  0  0  0
  -12.5044   15.6435  -23.9072 H   0  0  0  0  0  0  0  0  0  0  0  0
  -11.3039   14.0052  -25.9218 H   0  0  0  0  0  0  0  0  0  0  0  0
  -10.6138   12.4256  -23.6538 H   0  0  0  0  0  0  0  0  0  0  0  0
  -12.5469   12.5856  -26.9490 H   0  0  0  0  0  0  0  0  0  0  0  0
   -9.4741    8.0612  -23.4263 H   0  0  0  0  0  0  0  0  0  0  0  0
  -10.6632    7.9660  -28.6376 H   0  0  0  0  0  0  0  0  0  0  0  0
  -11.5001    6.7148  -27.6342 H   0  0  0  0  0  0  0  0  0  0  0  0
  -10.2069   14.2637  -23.3153 H   0  0  0  0  0  0  0  0  0  0  0  0
  -13.3775   15.9495  -25.8140 H   0  0  0  0  0  0  0  0  0  0  0  0
  1  2  1  0
  2  3  1  0
  3  4  1  0
  4  5  1  0
  5  6  1  0
  5  7  1  0
  7  8  1  0
  8  9  2  0
  9 10  1  0
 10 11  2  0
 11 12  1  0
 12 13  2  0
 13 14  1  0
 14 15  2  0
 15 16  1  0
  4 17  1  0
  3 18  1  0
  6  2  1  0
 11  7  1  0
 15 10  1  0
  1 19  1  0
  1 20  1  0
  2 21  1  0
  3 22  1  0
  4 23  1  0
  5 24  1  0
  8 25  1  0
 13 26  1  0
 16 27  1  0
 16 28  1  0
 17 29  1  0
 18 30  1  0
M  RAD  1   1   2
M  END
$$$$

     RDKit          3D

 30 32  0  0  0  0  0  0  0  0999 V2000
  -12.6288   13.8916  -21.7311 C   0  0  0  0  0  3  0  0  0  0  0  0
  -13.0241   13.6547  -23.1703 C   0  0  0  0  0  0  0  0  0  0  0  0
  -12.4816   14.7116  -24.0906 C   0  0  0  0  0  0  0  0  0  0  0  0
  -11.8399   13.8754  -25.1949 C   0  0  0  0  0  0  0  0  0  0  0  0
  -12.6475   12.5843  -25.0041 C   0  0  0  0  0  0  0  0  0  0  0  0
  -12.5426   12.4242  -23.6449 O   0  0  0  0  0  0  0  0  0  0  0  0
  -12.0910   11.4963  -25.7643 N   0  0  0  0  0  0  0  0  0  0  0  0
  -12.1585   11.4048  -27.0959 C   0  0  0  0  0  0  0  0  0  0  0  0
  -11.5526   10.2840  -27.5174 N   0  0  0  0  0  0  0  0  0  0  0  0
  -11.0912    9.6513  -26.4333 C   0  0  0  0  0  0  0  0  0  0  0  0
  -11.4375   10.4284  -25.3225 C   0  0  0  0  0  0  0  0  0  0  0  0
  -11.1056   10.0478  -24.0670 N   0  0  0  0  0  0  0  0  0  0  0  0
  -10.4293    8.9003  -23.8787 C   0  0  0  0  0  0  0  0  0  0  0  0
  -10.0785    8.1220  -24.9467 N   0  0  0  0  0  0  0  0  0  0  0  0
  -10.4011    8.4873  -26.1955 C   0  0  0  0  0  0  0  0  0  0  0  0
  -10.0300    7.6717  -27.2772 N   0  0  0  0  0  0  0  0  0  0  0  0
  -12.0124   14.4174  -26.4427 O   0  0  0  0  0  0  0  0  0  0  0  0
  -11.5748   15.5548  -23.4789 O   0  0  0  0  0  0  0  0  0  0  0  0
  -11.5581   14.2455  -21.6689 H   0  0  0  0  0  0  0  0  0  0  0  0
  -13.2566   14.7559  -21.3784 H   0  0  0  0  0  0  0  0  0  0  0  0
  -14.1182   13.6233  -23.2527 H   0  0  0  0  0  0  0  0  0  0  0  0
  -13.3156   15.2750  -24.5936 H   0  0  0  0  0  0  0  0  0  0  0  0
  -10.7663   13.7040  -24.9273 H   0  0  0  0  0  0  0  0  0  0  0  0
  -13.6858   12.8275  -25.2731 H   0  0  0  0  0  0  0  0  0  0  0  0
  -12.6224   12.1024  -27.7944 H   0  0  0  0  0  0  0  0  0  0  0  0
  -10.1307    8.5335  -22.9055 H   0  0  0  0  0  0  0  0  0  0  0  0
  -10.7109    7.4229  -28.0373 H   0  0  0  0  0  0  0  0  0  0  0  0
   -9.0761    7.2766  -27.3819 H   0  0  0  0  0  0  0  0  0  0  0  0
  -12.5619   15.2583  -26.4035 H   0  0  0  0  0  0  0  0  0  0  0  0
  -10.6621   15.4137  -23.8837 H   0  0  0  0  0  0  0  0  0  0  0  0
  1  2  1  0
  2  3  1  0
  3  4  1  0
  4  5  1  0
  5  6  1  0
  5  7  1  0
  7  8  1  0
  8  9  2  0
  9 10  1  0
 10 11  2  0
 11 12  1  0
 12 13  2  0
 13 14  1  0
 14 15  2  0
 15 16  1  0
  4 17  1  0
  3 18  1  0
  6  2  1  0
 11  7  1  0
 15 10  1  0
  1 19  1  0
  1 20  1  0
  2 21  1  0
  3 22  1  0
  4 23  1  0
  5 24  1  0
  8 25  1  0
 13 26  1  0
 16 27  1  0
 16 28  1  0
 17 29  1  0
 18 30  1  0
M  RAD  1   1   2
M  END
$$$$

     RDKit          3D

 30 32  0  0  0  0  0  0  0  0999 V2000
  -13.8966   15.7174  -24.9640 C   0  0  0  0  0  3  0  0  0  0  0  0
  -13.3190   14.3294  -24.6584 C   0  0  0  0  0  0  0  0  0  0  0  0
  -12.4331   14.3930  -23.4532 C   0  0  0  0  0  0  0  0  0  0  0  0
  -11.3096   13.4464  -23.8005 C   0  0  0  0  0  0  0  0  0  0  0  0
  -11.5692   13.0582  -25.2338 C   0  0  0  0  0  0  0  0  0  0  0  0
  -12.5992   13.8300  -25.7069 O   0  0  0  0  0  0  0  0  0  0  0  0
  -11.7539   11.6512  -25.4128 N   0  0  0  0  0  0  0  0  0  0  0  0
  -12.9288   11.0057  -25.3369 C   0  0  0  0  0  0  0  0  0  0  0  0
  -12.7435    9.6885  -25.5563 N   0  0  0  0  0  0  0  0  0  0  0  0
  -11.4430    9.4650  -25.7775 C   0  0  0  0  0  0  0  0  0  0  0  0
  -10.8213   10.6930  -25.6880 C   0  0  0  0  0  0  0  0  0  0  0  0
   -9.5103   10.7382  -25.8714 N   0  0  0  0  0  0  0  0  0  0  0  0
   -8.8237    9.5957  -26.1380 C   0  0  0  0  0  0  0  0  0  0  0  0
   -9.4405    8.4034  -26.2229 N   0  0  0  0  0  0  0  0  0  0  0  0
  -10.7769    8.2900  -26.0458 C   0  0  0  0  0  0  0  0  0  0  0  0
  -11.4375    7.0476  -26.1317 N   0  0  0  0  0  0  0  0  0  0  0  0
  -11.2678   12.3486  -22.9490 O   0  0  0  0  0  0  0  0  0  0  0  0
  -13.0532   13.9066  -22.3089 O   0  0  0  0  0  0  0  0  0  0  0  0
  -14.7214   15.6033  -25.6991 H   0  0  0  0  0  0  0  0  0  0  0  0
  -13.1276   16.4328  -25.2522 H   0  0  0  0  0  0  0  0  0  0  0  0
  -14.2086   13.7095  -24.3775 H   0  0  0  0  0  0  0  0  0  0  0  0
  -12.1028   15.4263  -23.3078 H   0  0  0  0  0  0  0  0  0  0  0  0
  -10.3640   14.0091  -23.6641 H   0  0  0  0  0  0  0  0  0  0  0  0
  -10.6454   13.3677  -25.8069 H   0  0  0  0  0  0  0  0  0  0  0  0
  -13.8875   11.4541  -25.1324 H   0  0  0  0  0  0  0  0  0  0  0  0
   -7.7443    9.6234  -26.2904 H   0  0  0  0  0  0  0  0  0  0  0  0
  -11.1196    6.3140  -26.7849 H   0  0  0  0  0  0  0  0  0  0  0  0
  -12.2595    6.8607  -25.5298 H   0  0  0  0  0  0  0  0  0  0  0  0
  -10.7173   12.5795  -22.1416 H   0  0  0  0  0  0  0  0  0  0  0  0
  -13.7748   14.5087  -22.0237 H   0  0  0  0  0  0  0  0  0  0  0  0
  1  2  1  0
  2  3  1  0
  3  4  1  0
  4  5  1  0
  5  6  1  0
  5  7  1  0
  7  8  1  0
  8  9  2  0
  9 10  1  0
 10 11  2  0
 11 12  1  0
 12 13  2  0
 13 14  1  0
 14 15  2  0
 15 16  1  0
  4 17  1  0
  3 18  1  0
  6  2  1  0
 11  7  1  0
 15 10  1  0
  1 19  1  0
  1 20  1  0
  2 21  1  0
  3 22  1  0
  4 23  1  0
  5 24  1  0
  8 25  1  0
 13 26  1  0
 16 27  1  0
 16 28  1  0
 17 29  1  0
 18 30  1  0
M  RAD  1   1   2
M  END
$$$$

     RDKit          3D

 30 32  0  0  0  0  0  0  0  0999 V2000
  -12.9359   13.6760  -21.7384 C   0  0  0  0  0  3  0  0  0  0  0  0
  -12.1394   13.5360  -23.0044 C   0  0  0  0  0  0  0  0  0  0  0  0
  -12.3855   14.6714  -23.9790 C   0  0  0  0  0  0  0  0  0  0  0  0
  -12.0223   13.9486  -25.2828 C   0  0  0  0  0  0  0  0  0  0  0  0
  -12.6396   12.5984  -24.9742 C   0  0  0  0  0  0  0  0  0  0  0  0
  -12.4234   12.3628  -23.6448 O   0  0  0  0  0  0  0  0  0  0  0  0
  -12.0730   11.5540  -25.8033 N   0  0  0  0  0  0  0  0  0  0  0  0
  -12.0367   11.4953  -27.1275 C   0  0  0  0  0  0  0  0  0  0  0  0
  -11.4143   10.3445  -27.4930 N   0  0  0  0  0  0  0  0  0  0  0  0
  -11.0506    9.6633  -26.3920 C   0  0  0  0  0  0  0  0  0  0  0  0
  -11.4731   10.4392  -25.3311 C   0  0  0  0  0  0  0  0  0  0  0  0
  -11.2309    9.9823  -24.0775 N   0  0  0  0  0  0  0  0  0  0  0  0
  -10.6038    8.8188  -23.8639 C   0  0  0  0  0  0  0  0  0  0  0  0
  -10.2035    8.0841  -24.9167 N   0  0  0  0  0  0  0  0  0  0  0  0
  -10.4013    8.4589  -26.1971 C   0  0  0  0  0  0  0  0  0  0  0  0
   -9.9674    7.6622  -27.2915 N   0  0  0  0  0  0  0  0  0  0  0  0
  -12.5573   14.5564  -26.3846 O   0  0  0  0  0  0  0  0  0  0  0  0
  -11.5692   15.7560  -23.7543 O   0  0  0  0  0  0  0  0  0  0  0  0
  -13.9256   14.1233  -21.9614 H   0  0  0  0  0  0  0  0  0  0  0  0
  -12.4094   14.3311  -20.9958 H   0  0  0  0  0  0  0  0  0  0  0  0
  -11.0598   13.5589  -22.7079 H   0  0  0  0  0  0  0  0  0  0  0  0
  -13.4562   14.8941  -23.9502 H   0  0  0  0  0  0  0  0  0  0  0  0
  -10.9220   13.8264  -25.3155 H   0  0  0  0  0  0  0  0  0  0  0  0
  -13.7279   12.6816  -25.2150 H   0  0  0  0  0  0  0  0  0  0  0  0
  -12.4503   12.2661  -27.7771 H   0  0  0  0  0  0  0  0  0  0  0  0
  -10.4303    8.4905  -22.8309 H   0  0  0  0  0  0  0  0  0  0  0  0
   -9.0839    7.9250  -27.7772 H   0  0  0  0  0  0  0  0  0  0  0  0
  -10.4724    6.8258  -27.6481 H   0  0  0  0  0  0  0  0  0  0  0  0
  -11.8111   14.7948  -26.9975 H   0  0  0  0  0  0  0  0  0  0  0  0
  -11.9832   16.5503  -24.1855 H   0  0  0  0  0  0  0  0  0  0  0  0
  1  2  1  0
  2  3  1  0
  3  4  1  0
  4  5  1  0
  5  6  1  0
  5  7  1  0
  7  8  1  0
  8  9  2  0
  9 10  1  0
 10 11  2  0
 11 12  1  0
 12 13  2  0
 13 14  1  0
 14 15  2  0
 15 16  1  0
  4 17  1  0
  3 18  1  0
  6  2  1  0
 11  7  1  0
 15 10  1  0
  1 19  1  0
  1 20  1  0
  2 21  1  0
  3 22  1  0
  4 23  1  0
  5 24  1  0
  8 25  1  0
 13 26  1  0
 16 27  1  0
 16 28  1  0
 17 29  1  0
 18 30  1  0
M  RAD  1   1   2
M  END
$$$$

     RDKit          3D

 30 32  0  0  0  0  0  0  0  0999 V2000
  -12.0203   14.3548  -21.9619 C   0  0  0  0  0  3  0  0  0  0  0  0
  -11.4582   13.9251  -23.3105 C   0  0  0  0  0  0  0  0  0  0  0  0
  -12.0150   14.7997  -24.3676 C   0  0  0  0  0  0  0  0  0  0  0  0
  -12.6350   13.8306  -25.3444 C   0  0  0  0  0  0  0  0  0  0  0  0
  -12.4658   12.5005  -24.7150 C   0  0  0  0  0  0  0  0  0  0  0  0
  -11.6830   12.6211  -23.5989 O   0  0  0  0  0  0  0  0  0  0  0  0
  -11.9315   11.4960  -25.6450 N   0  0  0  0  0  0  0  0  0  0  0  0
  -11.9123   11.5891  -26.9854 C   0  0  0  0  0  0  0  0  0  0  0  0
  -11.3382   10.4541  -27.4207 N   0  0  0  0  0  0  0  0  0  0  0  0
  -10.9999    9.6584  -26.3902 C   0  0  0  0  0  0  0  0  0  0  0  0
  -11.3883   10.3412  -25.2347 C   0  0  0  0  0  0  0  0  0  0  0  0
  -11.1438    9.7247  -24.0698 N   0  0  0  0  0  0  0  0  0  0  0  0
  -10.5578    8.5138  -23.9824 C   0  0  0  0  0  0  0  0  0  0  0  0
  -10.1781    7.8459  -25.1079 N   0  0  0  0  0  0  0  0  0  0  0  0
  -10.3997    8.4186  -26.3048 C   0  0  0  0  0  0  0  0  0  0  0  0
  -10.0133    7.7429  -27.4915 N   0  0  0  0  0  0  0  0  0  0  0  0
  -14.0107   14.1315  -25.4673 O   0  0  0  0  0  0  0  0  0  0  0  0
  -12.9760   15.6602  -23.8579 O   0  0  0  0  0  0  0  0  0  0  0  0
  -12.0877   15.4611  -21.9931 H   0  0  0  0  0  0  0  0  0  0  0  0
  -11.4156   13.9761  -21.1267 H   0  0  0  0  0  0  0  0  0  0  0  0
  -10.3476   14.0895  -23.2533 H   0  0  0  0  0  0  0  0  0  0  0  0
  -11.2410   15.4554  -24.8602 H   0  0  0  0  0  0  0  0  0  0  0  0
  -12.1490   13.9740  -26.3074 H   0  0  0  0  0  0  0  0  0  0  0  0
  -13.4560   12.0714  -24.3820 H   0  0  0  0  0  0  0  0  0  0  0  0
  -12.2821   12.4098  -27.6151 H   0  0  0  0  0  0  0  0  0  0  0  0
  -10.3622    8.0193  -23.0378 H   0  0  0  0  0  0  0  0  0  0  0  0
   -9.2200    8.0841  -28.0673 H   0  0  0  0  0  0  0  0  0  0  0  0
  -10.5075    6.8823  -27.8304 H   0  0  0  0  0  0  0  0  0  0  0  0
  -14.5364   13.4753  -24.9397 H   0  0  0  0  0  0  0  0  0  0  0  0
  -13.4765   16.1419  -24.5456 H   0  0  0  0  0  0  0  0  0  0  0  0
  1  2  1  0
  2  3  1  0
  3  4  1  0
  4  5  1  0
  5  6  1  0
  5  7  1  0
  7  8  1  0
  8  9  2  0
  9 10  1  0
 10 11  2  0
 11 12  1  0
 12 13  2  0
 13 14  1  0
 14 15  2  0
 15 16  1  0
  4 17  1  0
  3 18  1  0
  6  2  1  0
 11  7  1  0
 15 10  1  0
  1 19  1  0
  1 20  1  0
  2 21  1  0
  3 22  1  0
  4 23  1  0
  5 24  1  0
  8 25  1  0
 13 26  1  0
 16 27  1  0
 16 28  1  0
 17 29  1  0
 18 30  1  0
M  RAD  1   1   2
M  END
$$$$

     RDKit          3D

 30 32  0  0  0  0  0  0  0  0999 V2000
  -12.0670   16.0964  -25.2594 C   0  0  0  0  0  3  0  0  0  0  0  0
  -12.5056   14.6941  -24.9851 C   0  0  0  0  0  0  0  0  0  0  0  0
  -12.7547   14.4469  -23.4981 C   0  0  0  0  0  0  0  0  0  0  0  0
  -12.6154   12.9384  -23.4486 C   0  0  0  0  0  0  0  0  0  0  0  0
  -11.6067   12.6973  -24.5228 C   0  0  0  0  0  0  0  0  0  0  0  0
  -11.6237   13.7398  -25.4037 O   0  0  0  0  0  0  0  0  0  0  0  0
  -11.8375   11.4093  -25.1482 N   0  0  0  0  0  0  0  0  0  0  0  0
  -12.9970   10.8928  -25.5496 C   0  0  0  0  0  0  0  0  0  0  0  0
  -12.7996    9.6751  -26.0822 N   0  0  0  0  0  0  0  0  0  0  0  0
  -11.4859    9.3927  -26.0268 C   0  0  0  0  0  0  0  0  0  0  0  0
  -10.8890   10.4984  -25.4337 C   0  0  0  0  0  0  0  0  0  0  0  0
   -9.5553   10.4750  -25.2563 N   0  0  0  0  0  0  0  0  0  0  0  0
   -8.7963    9.4292  -25.6305 C   0  0  0  0  0  0  0  0  0  0  0  0
   -9.4016    8.3708  -26.2031 N   0  0  0  0  0  0  0  0  0  0  0  0
  -10.7201    8.3128  -26.4158 C   0  0  0  0  0  0  0  0  0  0  0  0
  -11.3299    7.1852  -27.0209 N   0  0  0  0  0  0  0  0  0  0  0  0
  -12.1065   12.4966  -22.2367 O   0  0  0  0  0  0  0  0  0  0  0  0
  -14.0350   14.8571  -23.1345 O   0  0  0  0  0  0  0  0  0  0  0  0
  -12.9211   16.7741  -25.4425 H   0  0  0  0  0  0  0  0  0  0  0  0
  -11.3852   16.4772  -24.4521 H   0  0  0  0  0  0  0  0  0  0  0  0
  -13.5005   14.5421  -25.4906 H   0  0  0  0  0  0  0  0  0  0  0  0
  -11.9657   14.9749  -22.9511 H   0  0  0  0  0  0  0  0  0  0  0  0
  -13.6072   12.4967  -23.6784 H   0  0  0  0  0  0  0  0  0  0  0  0
  -10.5879   12.6860  -24.0396 H   0  0  0  0  0  0  0  0  0  0  0  0
  -13.9533   11.3906  -25.4553 H   0  0  0  0  0  0  0  0  0  0  0  0
   -7.7190    9.4741  -25.4579 H   0  0  0  0  0  0  0  0  0  0  0  0
  -11.8766    6.5126  -26.4576 H   0  0  0  0  0  0  0  0  0  0  0  0
  -11.2434    7.0049  -28.0461 H   0  0  0  0  0  0  0  0  0  0  0  0
  -12.7409   12.6038  -21.4906 H   0  0  0  0  0  0  0  0  0  0  0  0
  -13.9273   15.5983  -22.4677 H   0  0  0  0  0  0  0  0  0  0  0  0
  1  2  1  0
  2  3  1  0
  3  4  1  0
  4  5  1  0
  5  6  1  0
  5  7  1  0
  7  8  1  0
  8  9  2  0
  9 10  1  0
 10 11  2  0
 11 12  1  0
 12 13  2  0
 13 14  1  0
 14 15  2  0
 15 16  1  0
  4 17  1  0
  3 18  1  0
  6  2  1  0
 11  7  1  0
 15 10  1  0
  1 19  1  0
  1 20  1  0
  2 21  1  0
  3 22  1  0
  4 23  1  0
  5 24  1  0
  8 25  1  0
 13 26  1  0
 16 27  1  0
 16 28  1  0
 17 29  1  0
 18 30  1  0
M  RAD  1   1   2
M  END
$$$$

     RDKit          3D

 30 32  0  0  0  0  0  0  0  0999 V2000
  -12.8921   13.8084  -21.7700 C   0  0  0  0  0  3  0  0  0  0  0  0
  -13.0571   13.7126  -23.2414 C   0  0  0  0  0  0  0  0  0  0  0  0
  -11.8180   14.3391  -23.8987 C   0  0  0  0  0  0  0  0  0  0  0  0
  -12.0207   13.8244  -25.3293 C   0  0  0  0  0  0  0  0  0  0  0  0
  -12.8752   12.6132  -25.0951 C   0  0  0  0  0  0  0  0  0  0  0  0
  -12.9420   12.4012  -23.7260 O   0  0  0  0  0  0  0  0  0  0  0  0
  -12.3106   11.5116  -25.8123 N   0  0  0  0  0  0  0  0  0  0  0  0
  -12.5327   11.2767  -27.1174 C   0  0  0  0  0  0  0  0  0  0  0  0
  -11.8472   10.1673  -27.4471 N   0  0  0  0  0  0  0  0  0  0  0  0
  -11.2080    9.7199  -26.3595 C   0  0  0  0  0  0  0  0  0  0  0  0
  -11.4958   10.5609  -25.3298 C   0  0  0  0  0  0  0  0  0  0  0  0
  -10.9602   10.3179  -24.1055 N   0  0  0  0  0  0  0  0  0  0  0  0
  -10.1532    9.2543  -23.9171 C   0  0  0  0  0  0  0  0  0  0  0  0
   -9.8467    8.3996  -24.9163 N   0  0  0  0  0  0  0  0  0  0  0  0
  -10.3829    8.6412  -26.1460 C   0  0  0  0  0  0  0  0  0  0  0  0
  -10.1123    7.7924  -27.2525 N   0  0  0  0  0  0  0  0  0  0  0  0
  -10.8231   13.5500  -25.9532 O   0  0  0  0  0  0  0  0  0  0  0  0
  -11.8491   15.7173  -23.8388 O   0  0  0  0  0  0  0  0  0  0  0  0
  -12.2859   14.7064  -21.5359 H   0  0  0  0  0  0  0  0  0  0  0  0
  -12.2911   12.9305  -21.4315 H   0  0  0  0  0  0  0  0  0  0  0  0
  -13.9257   14.2361  -23.6586 H   0  0  0  0  0  0  0  0  0  0  0  0
  -10.9184   13.8819  -23.4714 H   0  0  0  0  0  0  0  0  0  0  0  0
  -12.5935   14.6401  -25.8433 H   0  0  0  0  0  0  0  0  0  0  0  0
  -13.8959   12.8278  -25.5201 H   0  0  0  0  0  0  0  0  0  0  0  0
  -13.1537   11.8664  -27.8059 H   0  0  0  0  0  0  0  0  0  0  0  0
   -9.7092    9.0308  -22.9541 H   0  0  0  0  0  0  0  0  0  0  0  0
   -9.1944    7.6948  -27.6934 H   0  0  0  0  0  0  0  0  0  0  0  0
  -10.9106    7.2308  -27.6387 H   0  0  0  0  0  0  0  0  0  0  0  0
  -10.5578   14.3868  -26.4413 H   0  0  0  0  0  0  0  0  0  0  0  0
  -10.8959   16.0192  -23.7308 H   0  0  0  0  0  0  0  0  0  0  0  0
  1  2  1  0
  2  3  1  0
  3  4  1  0
  4  5  1  0
  5  6  1  0
  5  7  1  0
  7  8  1  0
  8  9  2  0
  9 10  1  0
 10 11  2  0
 11 12  1  0
 12 13  2  0
 13 14  1  0
 14 15  2  0
 15 16  1  0
  4 17  1  0
  3 18  1  0
  6  2  1  0
 11  7  1  0
 15 10  1  0
  1 19  1  0
  1 20  1  0
  2 21  1  0
  3 22  1  0
  4 23  1  0
  5 24  1  0
  8 25  1  0
 13 26  1  0
 16 27  1  0
 16 28  1  0
 17 29  1  0
 18 30  1  0
M  RAD  1   1   2
M  END
$$$$

     RDKit          3D

 30 32  0  0  0  0  0  0  0  0999 V2000
  -11.3047   14.4644  -22.1566 C   0  0  0  0  0  3  0  0  0  0  0  0
  -12.4192   13.7857  -22.9326 C   0  0  0  0  0  0  0  0  0  0  0  0
  -12.8647   14.6590  -24.0781 C   0  0  0  0  0  0  0  0  0  0  0  0
  -12.6906   13.7472  -25.2657 C   0  0  0  0  0  0  0  0  0  0  0  0
  -12.6948   12.3733  -24.6275 C   0  0  0  0  0  0  0  0  0  0  0  0
  -11.9741   12.5881  -23.4725 O   0  0  0  0  0  0  0  0  0  0  0  0
  -12.0323   11.4772  -25.5475 N   0  0  0  0  0  0  0  0  0  0  0  0
  -11.8804   11.6159  -26.8737 C   0  0  0  0  0  0  0  0  0  0  0  0
  -11.2052   10.5674  -27.3726 N   0  0  0  0  0  0  0  0  0  0  0  0
  -10.9164    9.7418  -26.3638 C   0  0  0  0  0  0  0  0  0  0  0  0
  -11.4364   10.3148  -25.2195 C   0  0  0  0  0  0  0  0  0  0  0  0
  -11.2758    9.6696  -24.0554 N   0  0  0  0  0  0  0  0  0  0  0  0
  -10.6300    8.4966  -23.9810 C   0  0  0  0  0  0  0  0  0  0  0  0
  -10.1321    7.9580  -25.1095 N   0  0  0  0  0  0  0  0  0  0  0  0
  -10.2464    8.5332  -26.3143 C   0  0  0  0  0  0  0  0  0  0  0  0
   -9.7383    8.0018  -27.5251 N   0  0  0  0  0  0  0  0  0  0  0  0
  -13.6917   13.8498  -26.1984 O   0  0  0  0  0  0  0  0  0  0  0  0
  -11.9939   15.7642  -24.1623 O   0  0  0  0  0  0  0  0  0  0  0  0
  -11.5084   14.5299  -21.0805 H   0  0  0  0  0  0  0  0  0  0  0  0
  -10.3092   14.0570  -22.4066 H   0  0  0  0  0  0  0  0  0  0  0  0
  -13.2803   13.6084  -22.2463 H   0  0  0  0  0  0  0  0  0  0  0  0
  -13.8984   15.0000  -23.9933 H   0  0  0  0  0  0  0  0  0  0  0  0
  -11.7194   13.9291  -25.7237 H   0  0  0  0  0  0  0  0  0  0  0  0
  -13.7153   11.9821  -24.4588 H   0  0  0  0  0  0  0  0  0  0  0  0
  -12.2593   12.4708  -27.4570 H   0  0  0  0  0  0  0  0  0  0  0  0
  -10.5035    7.9734  -23.0154 H   0  0  0  0  0  0  0  0  0  0  0  0
   -8.7384    8.2297  -27.8053 H   0  0  0  0  0  0  0  0  0  0  0  0
  -10.2715    7.3965  -28.1743 H   0  0  0  0  0  0  0  0  0  0  0  0
  -13.8933   14.7877  -26.4082 H   0  0  0  0  0  0  0  0  0  0  0  0
  -11.0843   15.4958  -24.3675 H   0  0  0  0  0  0  0  0  0  0  0  0
  1  2  1  0
  2  3  1  0
  3  4  1  0
  4  5  1  0
  5  6  1  0
  5  7  1  0
  7  8  1  0
  8  9  2  0
  9 10  1  0
 10 11  2  0
 11 12  1  0
 12 13  2  0
 13 14  1  0
 14 15  2  0
 15 16  1  0
  4 17  1  0
  3 18  1  0
  6  2  1  0
 11  7  1  0
 15 10  1  0
  1 19  1  0
  1 20  1  0
  2 21  1  0
  3 22  1  0
  4 23  1  0
  5 24  1  0
  8 25  1  0
 13 26  1  0
 16 27  1  0
 16 28  1  0
 17 29  1  0
 18 30  1  0
M  RAD  1   1   2
M  END
$$$$

     RDKit          3D

 30 32  0  0  0  0  0  0  0  0999 V2000
  -14.4322   13.7129  -22.9280 C   0  0  0  0  0  3  0  0  0  0  0  0
  -13.4806   14.2447  -23.9898 C   0  0  0  0  0  0  0  0  0  0  0  0
  -12.0891   14.4391  -23.4363 C   0  0  0  0  0  0  0  0  0  0  0  0
  -11.4605   13.1102  -23.8273 C   0  0  0  0  0  0  0  0  0  0  0  0
  -12.1089   12.9427  -25.1849 C   0  0  0  0  0  0  0  0  0  0  0  0
  -13.4068   13.3611  -25.0329 O   0  0  0  0  0  0  0  0  0  0  0  0
  -12.0553   11.5942  -25.6644 N   0  0  0  0  0  0  0  0  0  0  0  0
  -13.0487   11.0225  -26.3691 C   0  0  0  0  0  0  0  0  0  0  0  0
  -12.6901    9.7616  -26.6651 N   0  0  0  0  0  0  0  0  0  0  0  0
  -11.4792    9.5483  -26.1477 C   0  0  0  0  0  0  0  0  0  0  0  0
  -11.0658   10.6998  -25.5116 C   0  0  0  0  0  0  0  0  0  0  0  0
   -9.8621   10.7104  -24.9137 N   0  0  0  0  0  0  0  0  0  0  0  0
   -9.0547    9.6104  -24.9279 C   0  0  0  0  0  0  0  0  0  0  0  0
   -9.4946    8.5136  -25.5565 N   0  0  0  0  0  0  0  0  0  0  0  0
  -10.6875    8.4196  -26.1804 C   0  0  0  0  0  0  0  0  0  0  0  0
  -11.1237    7.2480  -26.8352 N   0  0  0  0  0  0  0  0  0  0  0  0
  -10.0799   13.1873  -23.9092 O   0  0  0  0  0  0  0  0  0  0  0  0
  -11.5072   15.4816  -24.1759 O   0  0  0  0  0  0  0  0  0  0  0  0
  -14.1375   12.7246  -22.5490 H   0  0  0  0  0  0  0  0  0  0  0  0
  -14.5316   14.4315  -22.0874 H   0  0  0  0  0  0  0  0  0  0  0  0
  -13.9091   15.2194  -24.3202 H   0  0  0  0  0  0  0  0  0  0  0  0
  -12.0632   14.6183  -22.3608 H   0  0  0  0  0  0  0  0  0  0  0  0
  -11.8191   12.3342  -23.1341 H   0  0  0  0  0  0  0  0  0  0  0  0
  -11.5949   13.6540  -25.8787 H   0  0  0  0  0  0  0  0  0  0  0  0
  -13.9926   11.4437  -26.6768 H   0  0  0  0  0  0  0  0  0  0  0  0
   -8.0775    9.6413  -24.4341 H   0  0  0  0  0  0  0  0  0  0  0  0
  -10.7634    6.3164  -26.5581 H   0  0  0  0  0  0  0  0  0  0  0  0
  -11.8146    7.3107  -27.6060 H   0  0  0  0  0  0  0  0  0  0  0  0
   -9.7373   13.3174  -23.0034 H   0  0  0  0  0  0  0  0  0  0  0  0
  -10.7030   15.1458  -24.6447 H   0  0  0  0  0  0  0  0  0  0  0  0
  1  2  1  0
  2  3  1  0
  3  4  1  0
  4  5  1  0
  5  6  1  0
  5  7  1  0
  7  8  1  0
  8  9  2  0
  9 10  1  0
 10 11  2  0
 11 12  1  0
 12 13  2  0
 13 14  1  0
 14 15  2  0
 15 16  1  0
  4 17  1  0
  3 18  1  0
  6  2  1  0
 11  7  1  0
 15 10  1  0
  1 19  1  0
  1 20  1  0
  2 21  1  0
  3 22  1  0
  4 23  1  0
  5 24  1  0
  8 25  1  0
 13 26  1  0
 16 27  1  0
 16 28  1  0
 17 29  1  0
 18 30  1  0
M  RAD  1   1   2
M  END
$$$$

     RDKit          3D

 30 32  0  0  0  0  0  0  0  0999 V2000
  -12.2237   14.5969  -22.2156 C   0  0  0  0  0  3  0  0  0  0  0  0
  -12.3704   13.3001  -23.0034 C   0  0  0  0  0  0  0  0  0  0  0  0
  -13.3055   13.5662  -24.1543 C   0  0  0  0  0  0  0  0  0  0  0  0
  -12.3281   13.9068  -25.2618 C   0  0  0  0  0  0  0  0  0  0  0  0
  -11.1089   13.1417  -24.8489 C   0  0  0  0  0  0  0  0  0  0  0  0
  -11.1915   12.8458  -23.5215 O   0  0  0  0  0  0  0  0  0  0  0  0
  -11.0285   11.9560  -25.6775 N   0  0  0  0  0  0  0  0  0  0  0  0
  -10.8609   11.9905  -27.0081 C   0  0  0  0  0  0  0  0  0  0  0  0
  -10.8277   10.7082  -27.4756 N   0  0  0  0  0  0  0  0  0  0  0  0
  -10.9784    9.9025  -26.4020 C   0  0  0  0  0  0  0  0  0  0  0  0
  -11.1048   10.6797  -25.2714 C   0  0  0  0  0  0  0  0  0  0  0  0
  -11.2692   10.1896  -24.0390 N   0  0  0  0  0  0  0  0  0  0  0  0
  -11.3138    8.8520  -23.8952 C   0  0  0  0  0  0  0  0  0  0  0  0
  -11.1929    8.0637  -24.9836 N   0  0  0  0  0  0  0  0  0  0  0  0
  -11.0280    8.5298  -26.2239 C   0  0  0  0  0  0  0  0  0  0  0  0
  -10.9009    7.7081  -27.3675 N   0  0  0  0  0  0  0  0  0  0  0  0
  -12.1261   15.2592  -25.4020 O   0  0  0  0  0  0  0  0  0  0  0  0
  -13.9676   12.4111  -24.5045 O   0  0  0  0  0  0  0  0  0  0  0  0
  -12.3895   15.4881  -22.8485 H   0  0  0  0  0  0  0  0  0  0  0  0
  -13.0082   14.6386  -21.4084 H   0  0  0  0  0  0  0  0  0  0  0  0
  -12.7896   12.4929  -22.3537 H   0  0  0  0  0  0  0  0  0  0  0  0
  -13.9711   14.4071  -23.8994 H   0  0  0  0  0  0  0  0  0  0  0  0
  -12.7662   13.5271  -26.2087 H   0  0  0  0  0  0  0  0  0  0  0  0
  -10.2163   13.7671  -25.0802 H   0  0  0  0  0  0  0  0  0  0  0  0
  -10.7616   12.8326  -27.6660 H   0  0  0  0  0  0  0  0  0  0  0  0
  -11.4470    8.4179  -22.9023 H   0  0  0  0  0  0  0  0  0  0  0  0
  -10.2390    6.8880  -27.2835 H   0  0  0  0  0  0  0  0  0  0  0  0
  -11.4050    7.8549  -28.2660 H   0  0  0  0  0  0  0  0  0  0  0  0
  -11.1543   15.4491  -25.2220 H   0  0  0  0  0  0  0  0  0  0  0  0
  -14.2026   11.9011  -23.7023 H   0  0  0  0  0  0  0  0  0  0  0  0
  1  2  1  0
  2  3  1  0
  3  4  1  0
  4  5  1  0
  5  6  1  0
  5  7  1  0
  7  8  1  0
  8  9  2  0
  9 10  1  0
 10 11  2  0
 11 12  1  0
 12 13  2  0
 13 14  1  0
 14 15  2  0
 15 16  1  0
  4 17  1  0
  3 18  1  0
  6  2  1  0
 11  7  1  0
 15 10  1  0
  1 19  1  0
  1 20  1  0
  2 21  1  0
  3 22  1  0
  4 23  1  0
  5 24  1  0
  8 25  1  0
 13 26  1  0
 16 27  1  0
 16 28  1  0
 17 29  1  0
 18 30  1  0
M  RAD  1   1   2
M  END
$$$$

     RDKit          3D

 30 32  0  0  0  0  0  0  0  0999 V2000
  -14.1980   14.2459  -22.4976 C   0  0  0  0  0  3  0  0  0  0  0  0
  -13.3182   13.9986  -23.6678 C   0  0  0  0  0  0  0  0  0  0  0  0
  -11.8566   14.2484  -23.4099 C   0  0  0  0  0  0  0  0  0  0  0  0
  -11.2108   13.4210  -24.5304 C   0  0  0  0  0  0  0  0  0  0  0  0
  -12.3797   12.7364  -25.1265 C   0  0  0  0  0  0  0  0  0  0  0  0
  -13.3004   12.6413  -24.0568 O   0  0  0  0  0  0  0  0  0  0  0  0
  -12.1275   11.4959  -25.7581 N   0  0  0  0  0  0  0  0  0  0  0  0
  -12.7965   11.0604  -26.8651 C   0  0  0  0  0  0  0  0  0  0  0  0
  -12.3218    9.8700  -27.1993 N   0  0  0  0  0  0  0  0  0  0  0  0
  -11.3605    9.5154  -26.3408 C   0  0  0  0  0  0  0  0  0  0  0  0
  -11.2440   10.5343  -25.4438 C   0  0  0  0  0  0  0  0  0  0  0  0
  -10.3477   10.4378  -24.4686 N   0  0  0  0  0  0  0  0  0  0  0  0
   -9.5476    9.3633  -24.3360 C   0  0  0  0  0  0  0  0  0  0  0  0
   -9.6369    8.3396  -25.2048 N   0  0  0  0  0  0  0  0  0  0  0  0
  -10.5398    8.3977  -26.2165 C   0  0  0  0  0  0  0  0  0  0  0  0
  -10.6985    7.3770  -27.1642 N   0  0  0  0  0  0  0  0  0  0  0  0
  -10.7089   14.3413  -25.4543 O   0  0  0  0  0  0  0  0  0  0  0  0
  -11.5337   15.5838  -23.5156 O   0  0  0  0  0  0  0  0  0  0  0  0
  -13.7140   14.6637  -21.6138 H   0  0  0  0  0  0  0  0  0  0  0  0
  -14.9245   13.4356  -22.2817 H   0  0  0  0  0  0  0  0  0  0  0  0
  -13.5992   14.5579  -24.5857 H   0  0  0  0  0  0  0  0  0  0  0  0
  -11.5354   13.8373  -22.4292 H   0  0  0  0  0  0  0  0  0  0  0  0
  -10.4428   12.7869  -24.0984 H   0  0  0  0  0  0  0  0  0  0  0  0
  -12.8698   13.4615  -25.8415 H   0  0  0  0  0  0  0  0  0  0  0  0
  -13.5886   11.6016  -27.3865 H   0  0  0  0  0  0  0  0  0  0  0  0
   -8.8064    9.2705  -23.5393 H   0  0  0  0  0  0  0  0  0  0  0  0
  -10.3014    7.4506  -28.1215 H   0  0  0  0  0  0  0  0  0  0  0  0
  -11.2238    6.5113  -26.9289 H   0  0  0  0  0  0  0  0  0  0  0  0
  -11.3436   15.1011  -25.4653 H   0  0  0  0  0  0  0  0  0  0  0  0
  -10.9681   15.8330  -22.7553 H   0  0  0  0  0  0  0  0  0  0  0  0
  1  2  1  0
  2  3  1  0
  3  4  1  0
  4  5  1  0
  5  6  1  0
  5  7  1  0
  7  8  1  0
  8  9  2  0
  9 10  1  0
 10 11  2  0
 11 12  1  0
 12 13  2  0
 13 14  1  0
 14 15  2  0
 15 16  1  0
  4 17  1  0
  3 18  1  0
  6  2  1  0
 11  7  1  0
 15 10  1  0
  1 19  1  0
  1 20  1  0
  2 21  1  0
  3 22  1  0
  4 23  1  0
  5 24  1  0
  8 25  1  0
 13 26  1  0
 16 27  1  0
 16 28  1  0
 17 29  1  0
 18 30  1  0
M  RAD  1   1   2
M  END
$$$$

     RDKit          3D

 30 32  0  0  0  0  0  0  0  0999 V2000
  -13.2676   13.7090  -21.8847 C   0  0  0  0  0  3  0  0  0  0  0  0
  -12.8911   13.5002  -23.3293 C   0  0  0  0  0  0  0  0  0  0  0  0
  -12.3563   14.7767  -23.9649 C   0  0  0  0  0  0  0  0  0  0  0  0
  -11.7539   14.1470  -25.2303 C   0  0  0  0  0  0  0  0  0  0  0  0
  -11.1785   12.8886  -24.6344 C   0  0  0  0  0  0  0  0  0  0  0  0
  -11.8949   12.5762  -23.5104 O   0  0  0  0  0  0  0  0  0  0  0  0
  -11.1390   11.7947  -25.5938 N   0  0  0  0  0  0  0  0  0  0  0  0
  -11.2282   11.8526  -26.9357 C   0  0  0  0  0  0  0  0  0  0  0  0
  -11.1417   10.5897  -27.3915 N   0  0  0  0  0  0  0  0  0  0  0  0
  -10.9993    9.7187  -26.3812 C   0  0  0  0  0  0  0  0  0  0  0  0
  -10.9989   10.5082  -25.2266 C   0  0  0  0  0  0  0  0  0  0  0  0
  -10.8679    9.8748  -24.0523 N   0  0  0  0  0  0  0  0  0  0  0  0
  -10.7424    8.5384  -23.9905 C   0  0  0  0  0  0  0  0  0  0  0  0
  -10.7394    7.7593  -25.0776 N   0  0  0  0  0  0  0  0  0  0  0  0
  -10.8678    8.3415  -26.2836 C   0  0  0  0  0  0  0  0  0  0  0  0
  -10.8712    7.5627  -27.4713 N   0  0  0  0  0  0  0  0  0  0  0  0
  -12.8304   13.7955  -26.0315 O   0  0  0  0  0  0  0  0  0  0  0  0
  -13.3584   15.6742  -24.2664 O   0  0  0  0  0  0  0  0  0  0  0  0
  -12.5100   14.2479  -21.3106 H   0  0  0  0  0  0  0  0  0  0  0  0
  -14.2899   14.1341  -21.8036 H   0  0  0  0  0  0  0  0  0  0  0  0
  -13.8258   13.2357  -23.8929 H   0  0  0  0  0  0  0  0  0  0  0  0
  -11.5387   15.2202  -23.3545 H   0  0  0  0  0  0  0  0  0  0  0  0
  -11.0248   14.7969  -25.7081 H   0  0  0  0  0  0  0  0  0  0  0  0
  -10.1192   13.1455  -24.3376 H   0  0  0  0  0  0  0  0  0  0  0  0
  -11.3483   12.7609  -27.5355 H   0  0  0  0  0  0  0  0  0  0  0  0
  -10.6409    8.0938  -23.0150 H   0  0  0  0  0  0  0  0  0  0  0  0
  -11.3394    6.6302  -27.5307 H   0  0  0  0  0  0  0  0  0  0  0  0
  -10.4020    7.8850  -28.3532 H   0  0  0  0  0  0  0  0  0  0  0  0
  -13.0797   14.4902  -26.6735 H   0  0  0  0  0  0  0  0  0  0  0  0
  -12.9672   16.3622  -24.8614 H   0  0  0  0  0  0  0  0  0  0  0  0
  1  2  1  0
  2  3  1  0
  3  4  1  0
  4  5  1  0
  5  6  1  0
  5  7  1  0
  7  8  1  0
  8  9  2  0
  9 10  1  0
 10 11  2  0
 11 12  1  0
 12 13  2  0
 13 14  1  0
 14 15  2  0
 15 16  1  0
  4 17  1  0
  3 18  1  0
  6  2  1  0
 11  7  1  0
 15 10  1  0
  1 19  1  0
  1 20  1  0
  2 21  1  0
  3 22  1  0
  4 23  1  0
  5 24  1  0
  8 25  1  0
 13 26  1  0
 16 27  1  0
 16 28  1  0
 17 29  1  0
 18 30  1  0
M  RAD  1   1   2
M  END
$$$$

     RDKit          3D

 30 32  0  0  0  0  0  0  0  0999 V2000
  -12.8624   13.6487  -21.8798 C   0  0  0  0  0  3  0  0  0  0  0  0
  -11.8926   13.9158  -23.0138 C   0  0  0  0  0  0  0  0  0  0  0  0
  -12.6320   14.6754  -24.0904 C   0  0  0  0  0  0  0  0  0  0  0  0
  -12.6543   13.6294  -25.2134 C   0  0  0  0  0  0  0  0  0  0  0  0
  -11.3226   12.9648  -24.9230 C   0  0  0  0  0  0  0  0  0  0  0  0
  -11.4068   12.7597  -23.5697 O   0  0  0  0  0  0  0  0  0  0  0  0
  -11.0890   11.7995  -25.6964 N   0  0  0  0  0  0  0  0  0  0  0  0
  -10.7641   11.7878  -26.9994 C   0  0  0  0  0  0  0  0  0  0  0  0
  -10.6093   10.5297  -27.4426 N   0  0  0  0  0  0  0  0  0  0  0  0
  -10.8493    9.7497  -26.3688 C   0  0  0  0  0  0  0  0  0  0  0  0
  -11.1497   10.5289  -25.2732 C   0  0  0  0  0  0  0  0  0  0  0  0
  -11.4292    9.9455  -24.0684 N   0  0  0  0  0  0  0  0  0  0  0  0
  -11.4113    8.6072  -23.9504 C   0  0  0  0  0  0  0  0  0  0  0  0
  -11.1188    7.8416  -25.0164 N   0  0  0  0  0  0  0  0  0  0  0  0
  -10.8379    8.3660  -26.2186 C   0  0  0  0  0  0  0  0  0  0  0  0
  -10.5255    7.5704  -27.3603 N   0  0  0  0  0  0  0  0  0  0  0  0
  -12.6790   14.2324  -26.4611 O   0  0  0  0  0  0  0  0  0  0  0  0
  -13.8932   15.0554  -23.7102 O   0  0  0  0  0  0  0  0  0  0  0  0
  -12.3091   13.6918  -20.9376 H   0  0  0  0  0  0  0  0  0  0  0  0
  -13.6599   14.4139  -21.8791 H   0  0  0  0  0  0  0  0  0  0  0  0
  -11.0636   14.5308  -22.6238 H   0  0  0  0  0  0  0  0  0  0  0  0
  -11.9984   15.5133  -24.4402 H   0  0  0  0  0  0  0  0  0  0  0  0
  -13.4632   12.9094  -25.0453 H   0  0  0  0  0  0  0  0  0  0  0  0
  -10.5122   13.7232  -25.0911 H   0  0  0  0  0  0  0  0  0  0  0  0
  -10.6422   12.6633  -27.6127 H   0  0  0  0  0  0  0  0  0  0  0  0
  -11.6289    8.0930  -23.0041 H   0  0  0  0  0  0  0  0  0  0  0  0
   -9.5327    7.4533  -27.6471 H   0  0  0  0  0  0  0  0  0  0  0  0
  -11.2441    7.0870  -27.9400 H   0  0  0  0  0  0  0  0  0  0  0  0
  -13.1538   13.6298  -27.1036 H   0  0  0  0  0  0  0  0  0  0  0  0
  -14.4618   15.2323  -24.5021 H   0  0  0  0  0  0  0  0  0  0  0  0
  1  2  1  0
  2  3  1  0
  3  4  1  0
  4  5  1  0
  5  6  1  0
  5  7  1  0
  7  8  1  0
  8  9  2  0
  9 10  1  0
 10 11  2  0
 11 12  1  0
 12 13  2  0
 13 14  1  0
 14 15  2  0
 15 16  1  0
  4 17  1  0
  3 18  1  0
  6  2  1  0
 11  7  1  0
 15 10  1  0
  1 19  1  0
  1 20  1  0
  2 21  1  0
  3 22  1  0
  4 23  1  0
  5 24  1  0
  8 25  1  0
 13 26  1  0
 16 27  1  0
 16 28  1  0
 17 29  1  0
 18 30  1  0
M  RAD  1   1   2
M  END
$$$$

     RDKit          3D

 30 32  0  0  0  0  0  0  0  0999 V2000
  -13.3555   15.6127  -25.6453 C   0  0  0  0  0  3  0  0  0  0  0  0
  -12.3587   14.8406  -24.8181 C   0  0  0  0  0  0  0  0  0  0  0  0
  -13.0149   14.1309  -23.6521 C   0  0  0  0  0  0  0  0  0  0  0  0
  -11.9611   13.1033  -23.3112 C   0  0  0  0  0  0  0  0  0  0  0  0
  -11.3055   12.8792  -24.6541 C   0  0  0  0  0  0  0  0  0  0  0  0
  -11.8374   13.7898  -25.5371 O   0  0  0  0  0  0  0  0  0  0  0  0
  -11.6569   11.5474  -25.1175 N   0  0  0  0  0  0  0  0  0  0  0  0
  -12.8810   11.0207  -25.2649 C   0  0  0  0  0  0  0  0  0  0  0  0
  -12.7944    9.7443  -25.7231 N   0  0  0  0  0  0  0  0  0  0  0  0
  -11.4983    9.4435  -25.8733 C   0  0  0  0  0  0  0  0  0  0  0  0
  -10.8023   10.5684  -25.4950 C   0  0  0  0  0  0  0  0  0  0  0  0
   -9.4740   10.5916  -25.5307 N   0  0  0  0  0  0  0  0  0  0  0  0
   -8.7856    9.5169  -25.9368 C   0  0  0  0  0  0  0  0  0  0  0  0
   -9.4455    8.4120  -26.3091 N   0  0  0  0  0  0  0  0  0  0  0  0
  -10.7870    8.3271  -26.2951 C   0  0  0  0  0  0  0  0  0  0  0  0
  -11.4952    7.1703  -26.6843 N   0  0  0  0  0  0  0  0  0  0  0  0
  -12.5097   11.9201  -22.8347 O   0  0  0  0  0  0  0  0  0  0  0  0
  -13.1641   14.9891  -22.5736 O   0  0  0  0  0  0  0  0  0  0  0  0
  -14.0716   14.9071  -26.1246 H   0  0  0  0  0  0  0  0  0  0  0  0
  -12.7892   16.0776  -26.4785 H   0  0  0  0  0  0  0  0  0  0  0  0
  -11.6029   15.5481  -24.4417 H   0  0  0  0  0  0  0  0  0  0  0  0
  -13.9439   13.6261  -23.9410 H   0  0  0  0  0  0  0  0  0  0  0  0
  -11.1992   13.4681  -22.6162 H   0  0  0  0  0  0  0  0  0  0  0  0
  -10.2204   12.9660  -24.6106 H   0  0  0  0  0  0  0  0  0  0  0  0
  -13.8264   11.5049  -25.0609 H   0  0  0  0  0  0  0  0  0  0  0  0
   -7.6933    9.5743  -25.9525 H   0  0  0  0  0  0  0  0  0  0  0  0
  -12.0056    7.1770  -27.5830 H   0  0  0  0  0  0  0  0  0  0  0  0
  -11.4924    6.3399  -26.0685 H   0  0  0  0  0  0  0  0  0  0  0  0
  -11.7514   11.3013  -22.6809 H   0  0  0  0  0  0  0  0  0  0  0  0
  -12.6083   15.7879  -22.7527 H   0  0  0  0  0  0  0  0  0  0  0  0
  1  2  1  0
  2  3  1  0
  3  4  1  0
  4  5  1  0
  5  6  1  0
  5  7  1  0
  7  8  1  0
  8  9  2  0
  9 10  1  0
 10 11  2  0
 11 12  1  0
 12 13  2  0
 13 14  1  0
 14 15  2  0
 15 16  1  0
  4 17  1  0
  3 18  1  0
  6  2  1  0
 11  7  1  0
 15 10  1  0
  1 19  1  0
  1 20  1  0
  2 21  1  0
  3 22  1  0
  4 23  1  0
  5 24  1  0
  8 25  1  0
 13 26  1  0
 16 27  1  0
 16 28  1  0
 17 29  1  0
 18 30  1  0
M  RAD  1   1   2
M  END
$$$$

     RDKit          3D

 30 32  0  0  0  0  0  0  0  0999 V2000
  -13.4313   15.7021  -24.6027 C   0  0  0  0  0  3  0  0  0  0  0  0
  -13.3234   14.1844  -24.7626 C   0  0  0  0  0  0  0  0  0  0  0  0
  -13.0191   13.6209  -23.4196 C   0  0  0  0  0  0  0  0  0  0  0  0
  -11.6176   13.0928  -23.5611 C   0  0  0  0  0  0  0  0  0  0  0  0
  -11.5011   12.9197  -25.0611 C   0  0  0  0  0  0  0  0  0  0  0  0
  -12.3394   13.8382  -25.6417 O   0  0  0  0  0  0  0  0  0  0  0  0
  -11.7583   11.5640  -25.4601 N   0  0  0  0  0  0  0  0  0  0  0  0
  -12.9393   11.0145  -25.7981 C   0  0  0  0  0  0  0  0  0  0  0  0
  -12.7916    9.7165  -26.1156 N   0  0  0  0  0  0  0  0  0  0  0  0
  -11.5169    9.3967  -25.9911 C   0  0  0  0  0  0  0  0  0  0  0  0
  -10.8638   10.5466  -25.5815 C   0  0  0  0  0  0  0  0  0  0  0  0
   -9.5484   10.4902  -25.3809 N   0  0  0  0  0  0  0  0  0  0  0  0
   -8.8560    9.3507  -25.5676 C   0  0  0  0  0  0  0  0  0  0  0  0
   -9.5076    8.2397  -25.9667 N   0  0  0  0  0  0  0  0  0  0  0  0
  -10.8339    8.2042  -26.1933 C   0  0  0  0  0  0  0  0  0  0  0  0
  -11.4924    7.0279  -26.6108 N   0  0  0  0  0  0  0  0  0  0  0  0
  -10.7489   14.0980  -23.1396 O   0  0  0  0  0  0  0  0  0  0  0  0
  -13.0381   14.6010  -22.4020 O   0  0  0  0  0  0  0  0  0  0  0  0
  -14.4227   16.0817  -24.8524 H   0  0  0  0  0  0  0  0  0  0  0  0
  -12.6008   16.2158  -25.1222 H   0  0  0  0  0  0  0  0  0  0  0  0
  -14.3219   13.8483  -25.1553 H   0  0  0  0  0  0  0  0  0  0  0  0
  -13.7240   12.8230  -23.1133 H   0  0  0  0  0  0  0  0  0  0  0  0
  -11.4596   12.1405  -23.0220 H   0  0  0  0  0  0  0  0  0  0  0  0
  -10.4478   13.2369  -25.3212 H   0  0  0  0  0  0  0  0  0  0  0  0
  -13.8751   11.5807  -25.8023 H   0  0  0  0  0  0  0  0  0  0  0  0
   -7.7675    9.3108  -25.3999 H   0  0  0  0  0  0  0  0  0  0  0  0
  -11.1148    6.4783  -27.3986 H   0  0  0  0  0  0  0  0  0  0  0  0
  -12.3509    6.6986  -26.1443 H   0  0  0  0  0  0  0  0  0  0  0  0
  -10.5700   14.7289  -23.8955 H   0  0  0  0  0  0  0  0  0  0  0  0
  -12.5909   15.4328  -22.7542 H   0  0  0  0  0  0  0  0  0  0  0  0
  1  2  1  0
  2  3  1  0
  3  4  1  0
  4  5  1  0
  5  6  1  0
  5  7  1  0
  7  8  1  0
  8  9  2  0
  9 10  1  0
 10 11  2  0
 11 12  1  0
 12 13  2  0
 13 14  1  0
 14 15  2  0
 15 16  1  0
  4 17  1  0
  3 18  1  0
  6  2  1  0
 11  7  1  0
 15 10  1  0
  1 19  1  0
  1 20  1  0
  2 21  1  0
  3 22  1  0
  4 23  1  0
  5 24  1  0
  8 25  1  0
 13 26  1  0
 16 27  1  0
 16 28  1  0
 17 29  1  0
 18 30  1  0
M  RAD  1   1   2
M  END
$$$$

     RDKit          3D

 30 32  0  0  0  0  0  0  0  0999 V2000
  -13.3755   14.2012  -25.7853 C   0  0  0  0  0  3  0  0  0  0  0  0
  -13.4072   14.1897  -24.2801 C   0  0  0  0  0  0  0  0  0  0  0  0
  -12.0316   14.5724  -23.7705 C   0  0  0  0  0  0  0  0  0  0  0  0
  -11.2926   13.2510  -24.0265 C   0  0  0  0  0  0  0  0  0  0  0  0
  -12.3914   12.2656  -23.7576 C   0  0  0  0  0  0  0  0  0  0  0  0
  -13.5924   12.9095  -23.8367 O   0  0  0  0  0  0  0  0  0  0  0  0
  -12.3252   11.1411  -24.6644 N   0  0  0  0  0  0  0  0  0  0  0  0
  -13.3881   10.4899  -25.1644 C   0  0  0  0  0  0  0  0  0  0  0  0
  -12.9534    9.4907  -25.9788 N   0  0  0  0  0  0  0  0  0  0  0  0
  -11.6013    9.5132  -25.9917 C   0  0  0  0  0  0  0  0  0  0  0  0
  -11.2255   10.5451  -25.1694 C   0  0  0  0  0  0  0  0  0  0  0  0
   -9.8934   10.7896  -25.0030 N   0  0  0  0  0  0  0  0  0  0  0  0
   -8.9620   10.0467  -25.6225 C   0  0  0  0  0  0  0  0  0  0  0  0
   -9.3705    9.0526  -26.4135 N   0  0  0  0  0  0  0  0  0  0  0  0
  -10.6622    8.7583  -26.6209 C   0  0  0  0  0  0  0  0  0  0  0  0
  -10.9761    7.6777  -27.4837 N   0  0  0  0  0  0  0  0  0  0  0  0
  -10.2071   13.1012  -23.1849 O   0  0  0  0  0  0  0  0  0  0  0  0
  -11.4714   15.6124  -24.5022 O   0  0  0  0  0  0  0  0  0  0  0  0
  -13.9136   13.3414  -26.2307 H   0  0  0  0  0  0  0  0  0  0  0  0
  -13.7002   15.1718  -26.2114 H   0  0  0  0  0  0  0  0  0  0  0  0
  -14.1738   14.8783  -23.8686 H   0  0  0  0  0  0  0  0  0  0  0  0
  -12.0534   14.7940  -22.6776 H   0  0  0  0  0  0  0  0  0  0  0  0
  -11.0428   13.2176  -25.0901 H   0  0  0  0  0  0  0  0  0  0  0  0
  -12.2599   11.9305  -22.6873 H   0  0  0  0  0  0  0  0  0  0  0  0
  -14.4483   10.6886  -24.9801 H   0  0  0  0  0  0  0  0  0  0  0  0
   -7.9089   10.2326  -25.4969 H   0  0  0  0  0  0  0  0  0  0  0  0
  -11.3330    6.7890  -27.0763 H   0  0  0  0  0  0  0  0  0  0  0  0
  -10.8583    7.7511  -28.5154 H   0  0  0  0  0  0  0  0  0  0  0  0
  -10.3157   12.3139  -22.5840 H   0  0  0  0  0  0  0  0  0  0  0  0
  -11.4386   16.4223  -23.8989 H   0  0  0  0  0  0  0  0  0  0  0  0
  1  2  1  0
  2  3  1  0
  3  4  1  0
  4  5  1  0
  5  6  1  0
  5  7  1  0
  7  8  1  0
  8  9  2  0
  9 10  1  0
 10 11  2  0
 11 12  1  0
 12 13  2  0
 13 14  1  0
 14 15  2  0
 15 16  1  0
  4 17  1  0
  3 18  1  0
  6  2  1  0
 11  7  1  0
 15 10  1  0
  1 19  1  0
  1 20  1  0
  2 21  1  0
  3 22  1  0
  4 23  1  0
  5 24  1  0
  8 25  1  0
 13 26  1  0
 16 27  1  0
 16 28  1  0
 17 29  1  0
 18 30  1  0
M  RAD  1   1   2
M  END
$$$$

     RDKit          3D

 30 32  0  0  0  0  0  0  0  0999 V2000
  -14.2846   14.8226  -24.4484 C   0  0  0  0  0  3  0  0  0  0  0  0
  -12.8184   14.6395  -24.8505 C   0  0  0  0  0  0  0  0  0  0  0  0
  -11.9463   14.5243  -23.6286 C   0  0  0  0  0  0  0  0  0  0  0  0
  -11.5156   13.0544  -23.6963 C   0  0  0  0  0  0  0  0  0  0  0  0
  -12.6360   12.4924  -24.5286 C   0  0  0  0  0  0  0  0  0  0  0  0
  -12.7400   13.4473  -25.5410 O   0  0  0  0  0  0  0  0  0  0  0  0
  -12.3646   11.1689  -25.0359 N   0  0  0  0  0  0  0  0  0  0  0  0
  -13.3095   10.2214  -25.1197 C   0  0  0  0  0  0  0  0  0  0  0  0
  -12.7864    9.0988  -25.6219 N   0  0  0  0  0  0  0  0  0  0  0  0
  -11.4907    9.3376  -25.8601 C   0  0  0  0  0  0  0  0  0  0  0  0
  -11.2325   10.6351  -25.4913 C   0  0  0  0  0  0  0  0  0  0  0  0
  -10.0051   11.1325  -25.6267 N   0  0  0  0  0  0  0  0  0  0  0  0
   -9.0464   10.3276  -26.1300 C   0  0  0  0  0  0  0  0  0  0  0  0
   -9.2828    9.0558  -26.4955 N   0  0  0  0  0  0  0  0  0  0  0  0
  -10.5212    8.5207  -26.3700 C   0  0  0  0  0  0  0  0  0  0  0  0
  -10.7831    7.1864  -26.7501 N   0  0  0  0  0  0  0  0  0  0  0  0
  -11.5052   12.5703  -22.4029 O   0  0  0  0  0  0  0  0  0  0  0  0
  -10.8586   15.3722  -23.6584 O   0  0  0  0  0  0  0  0  0  0  0  0
  -14.6640   15.7930  -24.8355 H   0  0  0  0  0  0  0  0  0  0  0  0
  -14.9269   14.0303  -24.8552 H   0  0  0  0  0  0  0  0  0  0  0  0
  -12.4775   15.4566  -25.5095 H   0  0  0  0  0  0  0  0  0  0  0  0
  -12.5811   14.6483  -22.7385 H   0  0  0  0  0  0  0  0  0  0  0  0
  -10.5376   12.9465  -24.1833 H   0  0  0  0  0  0  0  0  0  0  0  0
  -13.5496   12.5319  -23.9328 H   0  0  0  0  0  0  0  0  0  0  0  0
  -14.3612   10.2961  -24.8369 H   0  0  0  0  0  0  0  0  0  0  0  0
   -8.0201   10.7060  -26.2557 H   0  0  0  0  0  0  0  0  0  0  0  0
  -11.4346    7.0006  -27.5241 H   0  0  0  0  0  0  0  0  0  0  0  0
  -10.3205    6.4162  -26.2497 H   0  0  0  0  0  0  0  0  0  0  0  0
  -10.6099   12.7885  -22.0242 H   0  0  0  0  0  0  0  0  0  0  0  0
  -10.9865   16.0316  -22.9077 H   0  0  0  0  0  0  0  0  0  0  0  0
  1  2  1  0
  2  3  1  0
  3  4  1  0
  4  5  1  0
  5  6  1  0
  5  7  1  0
  7  8  1  0
  8  9  2  0
  9 10  1  0
 10 11  2  0
 11 12  1  0
 12 13  2  0
 13 14  1  0
 14 15  2  0
 15 16  1  0
  4 17  1  0
  3 18  1  0
  6  2  1  0
 11  7  1  0
 15 10  1  0
  1 19  1  0
  1 20  1  0
  2 21  1  0
  3 22  1  0
  4 23  1  0
  5 24  1  0
  8 25  1  0
 13 26  1  0
 16 27  1  0
 16 28  1  0
 17 29  1  0
 18 30  1  0
M  RAD  1   1   2
M  END
$$$$

     RDKit          3D

 30 32  0  0  0  0  0  0  0  0999 V2000
  -11.0730   15.2328  -24.8660 C   0  0  0  0  0  3  0  0  0  0  0  0
  -12.5491   14.8855  -24.8506 C   0  0  0  0  0  0  0  0  0  0  0  0
  -12.9671   14.3837  -23.4766 C   0  0  0  0  0  0  0  0  0  0  0  0
  -12.3283   12.9909  -23.4789 C   0  0  0  0  0  0  0  0  0  0  0  0
  -11.9549   12.8133  -24.9086 C   0  0  0  0  0  0  0  0  0  0  0  0
  -12.7750   13.7169  -25.6166 O   0  0  0  0  0  0  0  0  0  0  0  0
  -12.0535   11.4772  -25.3996 N   0  0  0  0  0  0  0  0  0  0  0  0
  -13.1265   10.7952  -25.8337 C   0  0  0  0  0  0  0  0  0  0  0  0
  -12.7742    9.5523  -26.2108 N   0  0  0  0  0  0  0  0  0  0  0  0
  -11.4630    9.4056  -26.0276 C   0  0  0  0  0  0  0  0  0  0  0  0
  -11.0076   10.6134  -25.5180 C   0  0  0  0  0  0  0  0  0  0  0  0
   -9.6844   10.7303  -25.2392 N   0  0  0  0  0  0  0  0  0  0  0  0
   -8.8084    9.7387  -25.4334 C   0  0  0  0  0  0  0  0  0  0  0  0
   -9.2804    8.5822  -25.9278 N   0  0  0  0  0  0  0  0  0  0  0  0
  -10.5694    8.3699  -26.2342 C   0  0  0  0  0  0  0  0  0  0  0  0
  -11.0184    7.1291  -26.7544 N   0  0  0  0  0  0  0  0  0  0  0  0
  -13.2657   12.0575  -23.0261 O   0  0  0  0  0  0  0  0  0  0  0  0
  -12.4280   15.1333  -22.4537 O   0  0  0  0  0  0  0  0  0  0  0  0
  -10.6347   15.1474  -23.8443 H   0  0  0  0  0  0  0  0  0  0  0  0
  -10.9252   16.2718  -25.1928 H   0  0  0  0  0  0  0  0  0  0  0  0
  -13.1614   15.7239  -25.1969 H   0  0  0  0  0  0  0  0  0  0  0  0
  -14.0623   14.3344  -23.4317 H   0  0  0  0  0  0  0  0  0  0  0  0
  -11.4232   13.0256  -22.8324 H   0  0  0  0  0  0  0  0  0  0  0  0
  -10.9092   13.2045  -25.0364 H   0  0  0  0  0  0  0  0  0  0  0  0
  -14.1233   11.2554  -25.8495 H   0  0  0  0  0  0  0  0  0  0  0  0
   -7.7664    9.9015  -25.1888 H   0  0  0  0  0  0  0  0  0  0  0  0
  -10.8475    6.9174  -27.7594 H   0  0  0  0  0  0  0  0  0  0  0  0
  -11.5054    6.4779  -26.0973 H   0  0  0  0  0  0  0  0  0  0  0  0
  -13.3895   12.2704  -22.0475 H   0  0  0  0  0  0  0  0  0  0  0  0
  -12.4757   16.0843  -22.6733 H   0  0  0  0  0  0  0  0  0  0  0  0
  1  2  1  0
  2  3  1  0
  3  4  1  0
  4  5  1  0
  5  6  1  0
  5  7  1  0
  7  8  1  0
  8  9  2  0
  9 10  1  0
 10 11  2  0
 11 12  1  0
 12 13  2  0
 13 14  1  0
 14 15  2  0
 15 16  1  0
  4 17  1  0
  3 18  1  0
  6  2  1  0
 11  7  1  0
 15 10  1  0
  1 19  1  0
  1 20  1  0
  2 21  1  0
  3 22  1  0
  4 23  1  0
  5 24  1  0
  8 25  1  0
 13 26  1  0
 16 27  1  0
 16 28  1  0
 17 29  1  0
 18 30  1  0
M  RAD  1   1   2
M  END
$$$$

     RDKit          3D

 30 32  0  0  0  0  0  0  0  0999 V2000
  -14.2305   15.1010  -23.4992 C   0  0  0  0  0  3  0  0  0  0  0  0
  -13.2369   14.5707  -24.5007 C   0  0  0  0  0  0  0  0  0  0  0  0
  -11.8583   14.6225  -23.8569 C   0  0  0  0  0  0  0  0  0  0  0  0
  -11.1626   13.4149  -24.4789 C   0  0  0  0  0  0  0  0  0  0  0  0
  -12.1998   12.8900  -25.3912 C   0  0  0  0  0  0  0  0  0  0  0  0
  -13.4011   13.2181  -24.7638 O   0  0  0  0  0  0  0  0  0  0  0  0
  -12.1002   11.4892  -25.6913 N   0  0  0  0  0  0  0  0  0  0  0  0
  -13.1638   10.7572  -26.0803 C   0  0  0  0  0  0  0  0  0  0  0  0
  -12.7829    9.4928  -26.2907 N   0  0  0  0  0  0  0  0  0  0  0  0
  -11.4745    9.4126  -26.0369 C   0  0  0  0  0  0  0  0  0  0  0  0
  -11.0611   10.6631  -25.6644 C   0  0  0  0  0  0  0  0  0  0  0  0
   -9.7825   10.9116  -25.3415 N   0  0  0  0  0  0  0  0  0  0  0  0
   -8.9143    9.8817  -25.3968 C   0  0  0  0  0  0  0  0  0  0  0  0
   -9.3049    8.6404  -25.7624 N   0  0  0  0  0  0  0  0  0  0  0  0
  -10.5621    8.3722  -26.0854 C   0  0  0  0  0  0  0  0  0  0  0  0
  -11.0471    7.1060  -26.4764 N   0  0  0  0  0  0  0  0  0  0  0  0
  -10.8116   12.5792  -23.4415 O   0  0  0  0  0  0  0  0  0  0  0  0
  -12.0327   14.4851  -22.4977 O   0  0  0  0  0  0  0  0  0  0  0  0
  -15.2472   14.8443  -23.8665 H   0  0  0  0  0  0  0  0  0  0  0  0
  -14.1726   16.2178  -23.5491 H   0  0  0  0  0  0  0  0  0  0  0  0
  -13.2881   15.1284  -25.4372 H   0  0  0  0  0  0  0  0  0  0  0  0
  -11.3792   15.5684  -24.1620 H   0  0  0  0  0  0  0  0  0  0  0  0
  -10.2672   13.7896  -25.0016 H   0  0  0  0  0  0  0  0  0  0  0  0
  -12.1730   13.4497  -26.3421 H   0  0  0  0  0  0  0  0  0  0  0  0
  -14.1910   11.1191  -26.2111 H   0  0  0  0  0  0  0  0  0  0  0  0
   -7.8617    9.9932  -25.1523 H   0  0  0  0  0  0  0  0  0  0  0  0
  -10.4095    6.4458  -26.9699 H   0  0  0  0  0  0  0  0  0  0  0  0
  -12.0238    6.7842  -26.2981 H   0  0  0  0  0  0  0  0  0  0  0  0
  -11.4617   11.8666  -23.3134 H   0  0  0  0  0  0  0  0  0  0  0  0
  -11.2961   13.9474  -22.1414 H   0  0  0  0  0  0  0  0  0  0  0  0
  1  2  1  0
  2  3  1  0
  3  4  1  0
  4  5  1  0
  5  6  1  0
  5  7  1  0
  7  8  1  0
  8  9  2  0
  9 10  1  0
 10 11  2  0
 11 12  1  0
 12 13  2  0
 13 14  1  0
 14 15  2  0
 15 16  1  0
  4 17  1  0
  3 18  1  0
  6  2  1  0
 11  7  1  0
 15 10  1  0
  1 19  1  0
  1 20  1  0
  2 21  1  0
  3 22  1  0
  4 23  1  0
  5 24  1  0
  8 25  1  0
 13 26  1  0
 16 27  1  0
 16 28  1  0
 17 29  1  0
 18 30  1  0
M  RAD  1   1   2
M  END
$$$$

     RDKit          3D

 30 32  0  0  0  0  0  0  0  0999 V2000
  -14.4222   14.4799  -23.5878 C   0  0  0  0  0  3  0  0  0  0  0  0
  -13.2354   14.6033  -24.5353 C   0  0  0  0  0  0  0  0  0  0  0  0
  -11.9397   14.5977  -23.7653 C   0  0  0  0  0  0  0  0  0  0  0  0
  -11.5591   13.1180  -23.8789 C   0  0  0  0  0  0  0  0  0  0  0  0
  -12.0326   12.8812  -25.3054 C   0  0  0  0  0  0  0  0  0  0  0  0
  -13.2364   13.5305  -25.3848 O   0  0  0  0  0  0  0  0  0  0  0  0
  -12.0913   11.4972  -25.6422 N   0  0  0  0  0  0  0  0  0  0  0  0
  -13.1867   10.8316  -26.0253 C   0  0  0  0  0  0  0  0  0  0  0  0
  -12.8125    9.5522  -26.2479 N   0  0  0  0  0  0  0  0  0  0  0  0
  -11.4965    9.4171  -26.0070 C   0  0  0  0  0  0  0  0  0  0  0  0
  -11.0482   10.6589  -25.6228 C   0  0  0  0  0  0  0  0  0  0  0  0
   -9.7401   10.8212  -25.3138 N   0  0  0  0  0  0  0  0  0  0  0  0
   -8.9469    9.7626  -25.3978 C   0  0  0  0  0  0  0  0  0  0  0  0
   -9.3559    8.5357  -25.7704 N   0  0  0  0  0  0  0  0  0  0  0  0
  -10.6293    8.3253  -26.0835 C   0  0  0  0  0  0  0  0  0  0  0  0
  -11.1166    7.0616  -26.4810 N   0  0  0  0  0  0  0  0  0  0  0  0
  -10.1766   12.9581  -23.7609 O   0  0  0  0  0  0  0  0  0  0  0  0
  -12.1011   14.9759  -22.4459 O   0  0  0  0  0  0  0  0  0  0  0  0
  -14.2249   14.9473  -22.6063 H   0  0  0  0  0  0  0  0  0  0  0  0
  -14.7178   13.4223  -23.5302 H   0  0  0  0  0  0  0  0  0  0  0  0
  -13.3944   15.5367  -25.1057 H   0  0  0  0  0  0  0  0  0  0  0  0
  -11.1365   15.1681  -24.2820 H   0  0  0  0  0  0  0  0  0  0  0  0
  -12.1137   12.5017  -23.1516 H   0  0  0  0  0  0  0  0  0  0  0  0
  -11.2931   13.4338  -25.9532 H   0  0  0  0  0  0  0  0  0  0  0  0
  -14.2058   11.1976  -26.1506 H   0  0  0  0  0  0  0  0  0  0  0  0
   -7.8905    9.8815  -25.1511 H   0  0  0  0  0  0  0  0  0  0  0  0
  -11.2965    6.8119  -27.4852 H   0  0  0  0  0  0  0  0  0  0  0  0
  -11.3165    6.3207  -25.7632 H   0  0  0  0  0  0  0  0  0  0  0  0
   -9.9336   12.5271  -22.9048 H   0  0  0  0  0  0  0  0  0  0  0  0
  -11.2743   15.4930  -22.1908 H   0  0  0  0  0  0  0  0  0  0  0  0
  1  2  1  0
  2  3  1  0
  3  4  1  0
  4  5  1  0
  5  6  1  0
  5  7  1  0
  7  8  1  0
  8  9  2  0
  9 10  1  0
 10 11  2  0
 11 12  1  0
 12 13  2  0
 13 14  1  0
 14 15  2  0
 15 16  1  0
  4 17  1  0
  3 18  1  0
  6  2  1  0
 11  7  1  0
 15 10  1  0
  1 19  1  0
  1 20  1  0
  2 21  1  0
  3 22  1  0
  4 23  1  0
  5 24  1  0
  8 25  1  0
 13 26  1  0
 16 27  1  0
 16 28  1  0
 17 29  1  0
 18 30  1  0
M  RAD  1   1   2
M  END
$$$$

     RDKit          3D

 30 32  0  0  0  0  0  0  0  0999 V2000
  -14.5667   14.6511  -23.3325 C   0  0  0  0  0  3  0  0  0  0  0  0
  -13.1797   14.0963  -23.4409 C   0  0  0  0  0  0  0  0  0  0  0  0
  -12.4872   14.5915  -24.7038 C   0  0  0  0  0  0  0  0  0  0  0  0
  -11.2864   13.6412  -24.6949 C   0  0  0  0  0  0  0  0  0  0  0  0
  -11.9253   12.3875  -24.1293 C   0  0  0  0  0  0  0  0  0  0  0  0
  -13.1708   12.7204  -23.6732 O   0  0  0  0  0  0  0  0  0  0  0  0
  -11.9502   11.3293  -25.1204 N   0  0  0  0  0  0  0  0  0  0  0  0
  -12.8255   11.1376  -26.0987 C   0  0  0  0  0  0  0  0  0  0  0  0
  -12.4998   10.0270  -26.8160 N   0  0  0  0  0  0  0  0  0  0  0  0
  -11.3959    9.5234  -26.2641 C   0  0  0  0  0  0  0  0  0  0  0  0
  -11.0415   10.3447  -25.1876 C   0  0  0  0  0  0  0  0  0  0  0  0
   -9.9403   10.0013  -24.4917 N   0  0  0  0  0  0  0  0  0  0  0  0
   -9.1927    8.9234  -24.7921 C   0  0  0  0  0  0  0  0  0  0  0  0
   -9.5612    8.1559  -25.8323 N   0  0  0  0  0  0  0  0  0  0  0  0
  -10.6426    8.4128  -26.5893 C   0  0  0  0  0  0  0  0  0  0  0  0
  -10.9956    7.5646  -27.6891 N   0  0  0  0  0  0  0  0  0  0  0  0
  -10.3672   14.1904  -23.8018 O   0  0  0  0  0  0  0  0  0  0  0  0
  -12.0984   15.9097  -24.5983 O   0  0  0  0  0  0  0  0  0  0  0  0
  -14.9947   14.9518  -24.3061 H   0  0  0  0  0  0  0  0  0  0  0  0
  -15.2426   14.0501  -22.7188 H   0  0  0  0  0  0  0  0  0  0  0  0
  -12.5321   14.3137  -22.5925 H   0  0  0  0  0  0  0  0  0  0  0  0
  -13.1219   14.3783  -25.5848 H   0  0  0  0  0  0  0  0  0  0  0  0
  -10.8772   13.4814  -25.6922 H   0  0  0  0  0  0  0  0  0  0  0  0
  -11.2943   12.0811  -23.2538 H   0  0  0  0  0  0  0  0  0  0  0  0
  -13.6748   11.7696  -26.2996 H   0  0  0  0  0  0  0  0  0  0  0  0
   -8.2963    8.6586  -24.2120 H   0  0  0  0  0  0  0  0  0  0  0  0
  -10.2272    7.3683  -28.3897 H   0  0  0  0  0  0  0  0  0  0  0  0
  -11.9497    7.1770  -27.7759 H   0  0  0  0  0  0  0  0  0  0  0  0
  -10.2915   15.1793  -23.8919 H   0  0  0  0  0  0  0  0  0  0  0  0
  -12.0444   16.2911  -25.5089 H   0  0  0  0  0  0  0  0  0  0  0  0
  1  2  1  0
  2  3  1  0
  3  4  1  0
  4  5  1  0
  5  6  1  0
  5  7  1  0
  7  8  1  0
  8  9  2  0
  9 10  1  0
 10 11  2  0
 11 12  1  0
 12 13  2  0
 13 14  1  0
 14 15  2  0
 15 16  1  0
  4 17  1  0
  3 18  1  0
  6  2  1  0
 11  7  1  0
 15 10  1  0
  1 19  1  0
  1 20  1  0
  2 21  1  0
  3 22  1  0
  4 23  1  0
  5 24  1  0
  8 25  1  0
 13 26  1  0
 16 27  1  0
 16 28  1  0
 17 29  1  0
 18 30  1  0
M  RAD  1   1   2
M  END
$$$$

     RDKit          3D

 30 32  0  0  0  0  0  0  0  0999 V2000
  -12.1749   13.8873  -21.5852 C   0  0  0  0  0  3  0  0  0  0  0  0
  -11.8998   14.0291  -23.0680 C   0  0  0  0  0  0  0  0  0  0  0  0
  -13.1572   14.2873  -23.8628 C   0  0  0  0  0  0  0  0  0  0  0  0
  -13.0961   13.2055  -24.9238 C   0  0  0  0  0  0  0  0  0  0  0  0
  -11.5819   12.9880  -24.9565 C   0  0  0  0  0  0  0  0  0  0  0  0
  -11.3196   12.8772  -23.5967 O   0  0  0  0  0  0  0  0  0  0  0  0
  -11.2061   11.8515  -25.7092 N   0  0  0  0  0  0  0  0  0  0  0  0
  -10.7791   11.8682  -26.9812 C   0  0  0  0  0  0  0  0  0  0  0  0
  -10.5070   10.6250  -27.3921 N   0  0  0  0  0  0  0  0  0  0  0  0
  -10.7588    9.7904  -26.3793 C   0  0  0  0  0  0  0  0  0  0  0  0
  -11.1972   10.5682  -25.3266 C   0  0  0  0  0  0  0  0  0  0  0  0
  -11.5262    9.9825  -24.1639 N   0  0  0  0  0  0  0  0  0  0  0  0
  -11.4270    8.6359  -24.0288 C   0  0  0  0  0  0  0  0  0  0  0  0
  -10.9933    7.8768  -25.0735 N   0  0  0  0  0  0  0  0  0  0  0  0
  -10.6520    8.4146  -26.2575 C   0  0  0  0  0  0  0  0  0  0  0  0
  -10.2018    7.6011  -27.3338 N   0  0  0  0  0  0  0  0  0  0  0  0
  -13.5936   13.6015  -26.1368 O   0  0  0  0  0  0  0  0  0  0  0  0
  -13.0553   15.5179  -24.4801 O   0  0  0  0  0  0  0  0  0  0  0  0
  -13.2690   13.8707  -21.4381 H   0  0  0  0  0  0  0  0  0  0  0  0
  -11.7988   12.9041  -21.1977 H   0  0  0  0  0  0  0  0  0  0  0  0
  -11.1496   14.8504  -23.2492 H   0  0  0  0  0  0  0  0  0  0  0  0
  -14.0714   14.2032  -23.2432 H   0  0  0  0  0  0  0  0  0  0  0  0
  -13.6105   12.2895  -24.5683 H   0  0  0  0  0  0  0  0  0  0  0  0
  -11.1348   13.9398  -25.2936 H   0  0  0  0  0  0  0  0  0  0  0  0
  -10.6669   12.7543  -27.5967 H   0  0  0  0  0  0  0  0  0  0  0  0
  -11.6801    8.1188  -23.1132 H   0  0  0  0  0  0  0  0  0  0  0  0
   -9.4400    7.8959  -27.9724 H   0  0  0  0  0  0  0  0  0  0  0  0
  -10.6254    6.6540  -27.5328 H   0  0  0  0  0  0  0  0  0  0  0  0
  -12.9293   14.0259  -26.7291 H   0  0  0  0  0  0  0  0  0  0  0  0
  -13.9289   15.9425  -24.6635 H   0  0  0  0  0  0  0  0  0  0  0  0
  1  2  1  0
  2  3  1  0
  3  4  1  0
  4  5  1  0
  5  6  1  0
  5  7  1  0
  7  8  1  0
  8  9  2  0
  9 10  1  0
 10 11  2  0
 11 12  1  0
 12 13  2  0
 13 14  1  0
 14 15  2  0
 15 16  1  0
  4 17  1  0
  3 18  1  0
  6  2  1  0
 11  7  1  0
 15 10  1  0
  1 19  1  0
  1 20  1  0
  2 21  1  0
  3 22  1  0
  4 23  1  0
  5 24  1  0
  8 25  1  0
 13 26  1  0
 16 27  1  0
 16 28  1  0
 17 29  1  0
 18 30  1  0
M  RAD  1   1   2
M  END
$$$$

     RDKit          3D

 30 32  0  0  0  0  0  0  0  0999 V2000
  -12.9462   14.0296  -21.8471 C   0  0  0  0  0  3  0  0  0  0  0  0
  -13.1618   13.8074  -23.3081 C   0  0  0  0  0  0  0  0  0  0  0  0
  -12.5138   14.8907  -24.1580 C   0  0  0  0  0  0  0  0  0  0  0  0
  -12.1867   14.0518  -25.4034 C   0  0  0  0  0  0  0  0  0  0  0  0
  -11.7305   12.7929  -24.6958 C   0  0  0  0  0  0  0  0  0  0  0  0
  -12.7195   12.5979  -23.7678 O   0  0  0  0  0  0  0  0  0  0  0  0
  -11.5582   11.6894  -25.6023 N   0  0  0  0  0  0  0  0  0  0  0  0
  -11.8236   11.6140  -26.9168 C   0  0  0  0  0  0  0  0  0  0  0  0
  -11.5170   10.3959  -27.3923 N   0  0  0  0  0  0  0  0  0  0  0  0
  -11.0404    9.6492  -26.3792 C   0  0  0  0  0  0  0  0  0  0  0  0
  -11.0727   10.4781  -25.2588 C   0  0  0  0  0  0  0  0  0  0  0  0
  -10.6427    9.9709  -24.0902 N   0  0  0  0  0  0  0  0  0  0  0  0
  -10.1916    8.7117  -23.9759 C   0  0  0  0  0  0  0  0  0  0  0  0
  -10.1755    7.9422  -25.0789 N   0  0  0  0  0  0  0  0  0  0  0  0
  -10.5809    8.3509  -26.2867 C   0  0  0  0  0  0  0  0  0  0  0  0
  -10.5543    7.5191  -27.4375 N   0  0  0  0  0  0  0  0  0  0  0  0
  -13.4072   13.8733  -26.0587 O   0  0  0  0  0  0  0  0  0  0  0  0
  -11.3044   15.2434  -23.5985 O   0  0  0  0  0  0  0  0  0  0  0  0
  -12.1943   14.8154  -21.7206 H   0  0  0  0  0  0  0  0  0  0  0  0
  -13.8776   14.3910  -21.3661 H   0  0  0  0  0  0  0  0  0  0  0  0
  -14.2666   13.8875  -23.5300 H   0  0  0  0  0  0  0  0  0  0  0  0
  -13.1782   15.7196  -24.3768 H   0  0  0  0  0  0  0  0  0  0  0  0
  -11.4253   14.5111  -26.0256 H   0  0  0  0  0  0  0  0  0  0  0  0
  -10.8001   13.0568  -24.1545 H   0  0  0  0  0  0  0  0  0  0  0  0
  -12.2332   12.4497  -27.4916 H   0  0  0  0  0  0  0  0  0  0  0  0
   -9.8436    8.3164  -23.0070 H   0  0  0  0  0  0  0  0  0  0  0  0
  -11.4149    7.5127  -28.0288 H   0  0  0  0  0  0  0  0  0  0  0  0
   -9.7072    6.9576  -27.6532 H   0  0  0  0  0  0  0  0  0  0  0  0
  -13.9962   13.3339  -25.4969 H   0  0  0  0  0  0  0  0  0  0  0  0
  -11.1382   16.2060  -23.5441 H   0  0  0  0  0  0  0  0  0  0  0  0
  1  2  1  0
  2  3  1  0
  3  4  1  0
  4  5  1  0
  5  6  1  0
  5  7  1  0
  7  8  1  0
  8  9  2  0
  9 10  1  0
 10 11  2  0
 11 12  1  0
 12 13  2  0
 13 14  1  0
 14 15  2  0
 15 16  1  0
  4 17  1  0
  3 18  1  0
  6  2  1  0
 11  7  1  0
 15 10  1  0
  1 19  1  0
  1 20  1  0
  2 21  1  0
  3 22  1  0
  4 23  1  0
  5 24  1  0
  8 25  1  0
 13 26  1  0
 16 27  1  0
 16 28  1  0
 17 29  1  0
 18 30  1  0
M  RAD  1   1   2
M  END
$$$$

     RDKit          3D

 30 32  0  0  0  0  0  0  0  0999 V2000
  -14.1844   14.5635  -22.6553 C   0  0  0  0  0  3  0  0  0  0  0  0
  -13.4388   14.1203  -23.8946 C   0  0  0  0  0  0  0  0  0  0  0  0
  -12.1309   14.8684  -24.0543 C   0  0  0  0  0  0  0  0  0  0  0  0
  -11.4548   13.9194  -25.0574 C   0  0  0  0  0  0  0  0  0  0  0  0
  -11.8809   12.5951  -24.4134 C   0  0  0  0  0  0  0  0  0  0  0  0
  -13.1230   12.7871  -23.8798 O   0  0  0  0  0  0  0  0  0  0  0  0
  -11.7896   11.5031  -25.3347 N   0  0  0  0  0  0  0  0  0  0  0  0
  -12.4333   11.3875  -26.5088 C   0  0  0  0  0  0  0  0  0  0  0  0
  -12.0942   10.2140  -27.1018 N   0  0  0  0  0  0  0  0  0  0  0  0
  -11.2289    9.6022  -26.2765 C   0  0  0  0  0  0  0  0  0  0  0  0
  -11.0295   10.3933  -25.1716 C   0  0  0  0  0  0  0  0  0  0  0  0
  -10.1874    9.9727  -24.1970 N   0  0  0  0  0  0  0  0  0  0  0  0
   -9.5498    8.7861  -24.3112 C   0  0  0  0  0  0  0  0  0  0  0  0
   -9.7398    8.0049  -25.3909 N   0  0  0  0  0  0  0  0  0  0  0  0
  -10.5660    8.3801  -26.3838 C   0  0  0  0  0  0  0  0  0  0  0  0
  -10.7444    7.5330  -27.5090 N   0  0  0  0  0  0  0  0  0  0  0  0
  -12.0688   14.1200  -26.2775 O   0  0  0  0  0  0  0  0  0  0  0  0
  -11.4826   14.8573  -22.8381 O   0  0  0  0  0  0  0  0  0  0  0  0
  -15.2432   14.2093  -22.7824 H   0  0  0  0  0  0  0  0  0  0  0  0
  -13.7279   14.0009  -21.7901 H   0  0  0  0  0  0  0  0  0  0  0  0
  -14.0594   14.3064  -24.8163 H   0  0  0  0  0  0  0  0  0  0  0  0
  -12.2597   15.8742  -24.4834 H   0  0  0  0  0  0  0  0  0  0  0  0
  -10.3698   14.0385  -25.0625 H   0  0  0  0  0  0  0  0  0  0  0  0
  -11.1663   12.4473  -23.5672 H   0  0  0  0  0  0  0  0  0  0  0  0
  -13.1155   12.1270  -26.9070 H   0  0  0  0  0  0  0  0  0  0  0  0
   -8.8685    8.4577  -23.5110 H   0  0  0  0  0  0  0  0  0  0  0  0
  -11.5812    7.6194  -28.1119 H   0  0  0  0  0  0  0  0  0  0  0  0
  -10.0211    6.8151  -27.7286 H   0  0  0  0  0  0  0  0  0  0  0  0
  -11.4226   14.3944  -26.9997 H   0  0  0  0  0  0  0  0  0  0  0  0
  -10.4936   14.7215  -22.9318 H   0  0  0  0  0  0  0  0  0  0  0  0
  1  2  1  0
  2  3  1  0
  3  4  1  0
  4  5  1  0
  5  6  1  0
  5  7  1  0
  7  8  1  0
  8  9  2  0
  9 10  1  0
 10 11  2  0
 11 12  1  0
 12 13  2  0
 13 14  1  0
 14 15  2  0
 15 16  1  0
  4 17  1  0
  3 18  1  0
  6  2  1  0
 11  7  1  0
 15 10  1  0
  1 19  1  0
  1 20  1  0
  2 21  1  0
  3 22  1  0
  4 23  1  0
  5 24  1  0
  8 25  1  0
 13 26  1  0
 16 27  1  0
 16 28  1  0
 17 29  1  0
 18 30  1  0
M  RAD  1   1   2
M  END
$$$$

     RDKit          3D

 30 32  0  0  0  0  0  0  0  0999 V2000
  -11.3225   15.7618  -23.1945 C   0  0  0  0  0  3  0  0  0  0  0  0
  -11.9237   14.3980  -23.1628 C   0  0  0  0  0  0  0  0  0  0  0  0
  -13.2615   14.3859  -23.8854 C   0  0  0  0  0  0  0  0  0  0  0  0
  -13.4587   12.8723  -24.0213 C   0  0  0  0  0  0  0  0  0  0  0  0
  -12.0487   12.3783  -24.0412 C   0  0  0  0  0  0  0  0  0  0  0  0
  -11.2093   13.4859  -23.9716 O   0  0  0  0  0  0  0  0  0  0  0  0
  -11.7455   11.5297  -25.1652 N   0  0  0  0  0  0  0  0  0  0  0  0
  -12.0239   11.7260  -26.4663 C   0  0  0  0  0  0  0  0  0  0  0  0
  -11.5749   10.6989  -27.2109 N   0  0  0  0  0  0  0  0  0  0  0  0
  -10.9909    9.8083  -26.3984 C   0  0  0  0  0  0  0  0  0  0  0  0
  -11.0979   10.3274  -25.1235 C   0  0  0  0  0  0  0  0  0  0  0  0
  -10.5974    9.6523  -24.0738 N   0  0  0  0  0  0  0  0  0  0  0  0
   -9.9886    8.4689  -24.2468 C   0  0  0  0  0  0  0  0  0  0  0  0
   -9.8929    7.9778  -25.4945 N   0  0  0  0  0  0  0  0  0  0  0  0
  -10.3664    8.5896  -26.5950 C   0  0  0  0  0  0  0  0  0  0  0  0
  -10.2576    8.0591  -27.9021 N   0  0  0  0  0  0  0  0  0  0  0  0
  -14.1862   12.5474  -25.1503 O   0  0  0  0  0  0  0  0  0  0  0  0
  -13.1803   14.9403  -25.1523 O   0  0  0  0  0  0  0  0  0  0  0  0
  -10.5747   15.9137  -22.4111 H   0  0  0  0  0  0  0  0  0  0  0  0
  -12.1353   16.5143  -23.2052 H   0  0  0  0  0  0  0  0  0  0  0  0
  -12.0994   13.9943  -22.1511 H   0  0  0  0  0  0  0  0  0  0  0  0
  -14.0733   14.8219  -23.2708 H   0  0  0  0  0  0  0  0  0  0  0  0
  -14.0066   12.5761  -23.0788 H   0  0  0  0  0  0  0  0  0  0  0  0
  -11.8827   11.8091  -23.0953 H   0  0  0  0  0  0  0  0  0  0  0  0
  -12.5517   12.6261  -26.8193 H   0  0  0  0  0  0  0  0  0  0  0  0
   -9.5786    7.9169  -23.3835 H   0  0  0  0  0  0  0  0  0  0  0  0
  -11.0481    7.6323  -28.4306 H   0  0  0  0  0  0  0  0  0  0  0  0
   -9.3319    8.0757  -28.4148 H   0  0  0  0  0  0  0  0  0  0  0  0
  -14.6270   11.6644  -24.9800 H   0  0  0  0  0  0  0  0  0  0  0  0
  -12.2563   15.2913  -25.2861 H   0  0  0  0  0  0  0  0  0  0  0  0
  1  2  1  0
  2  3  1  0
  3  4  1  0
  4  5  1  0
  5  6  1  0
  5  7  1  0
  7  8  1  0
  8  9  2  0
  9 10  1  0
 10 11  2  0
 11 12  1  0
 12 13  2  0
 13 14  1  0
 14 15  2  0
 15 16  1  0
  4 17  1  0
  3 18  1  0
  6  2  1  0
 11  7  1  0
 15 10  1  0
  1 19  1  0
  1 20  1  0
  2 21  1  0
  3 22  1  0
  4 23  1  0
  5 24  1  0
  8 25  1  0
 13 26  1  0
 16 27  1  0
 16 28  1  0
 17 29  1  0
 18 30  1  0
M  RAD  1   1   2
M  END
$$$$

     RDKit          3D

 30 32  0  0  0  0  0  0  0  0999 V2000
  -13.8539   14.9672  -22.8963 C   0  0  0  0  0  3  0  0  0  0  0  0
  -13.4952   14.2194  -24.1784 C   0  0  0  0  0  0  0  0  0  0  0  0
  -12.0353   14.4599  -24.4950 C   0  0  0  0  0  0  0  0  0  0  0  0
  -11.4119   13.3145  -23.6909 C   0  0  0  0  0  0  0  0  0  0  0  0
  -12.4600   12.2752  -23.7796 C   0  0  0  0  0  0  0  0  0  0  0  0
  -13.6757   12.8890  -23.9575 O   0  0  0  0  0  0  0  0  0  0  0  0
  -12.2694   11.3295  -24.8529 N   0  0  0  0  0  0  0  0  0  0  0  0
  -13.1054   11.0490  -25.8710 C   0  0  0  0  0  0  0  0  0  0  0  0
  -12.5968   10.1231  -26.6694 N   0  0  0  0  0  0  0  0  0  0  0  0
  -11.4112    9.7662  -26.2011 C   0  0  0  0  0  0  0  0  0  0  0  0
  -11.2022   10.5284  -25.0518 C   0  0  0  0  0  0  0  0  0  0  0  0
  -10.0490   10.3276  -24.4074 N   0  0  0  0  0  0  0  0  0  0  0  0
   -9.1373    9.4490  -24.8285 C   0  0  0  0  0  0  0  0  0  0  0  0
   -9.3411    8.7081  -25.9462 N   0  0  0  0  0  0  0  0  0  0  0  0
  -10.4807    8.8567  -26.6475 C   0  0  0  0  0  0  0  0  0  0  0  0
  -10.6857    8.0705  -27.8246 N   0  0  0  0  0  0  0  0  0  0  0  0
  -10.1736   12.9874  -24.1271 O   0  0  0  0  0  0  0  0  0  0  0  0
  -11.7424   14.2872  -25.8308 O   0  0  0  0  0  0  0  0  0  0  0  0
  -14.3369   14.3032  -22.1693 H   0  0  0  0  0  0  0  0  0  0  0  0
  -12.9235   15.3543  -22.4274 H   0  0  0  0  0  0  0  0  0  0  0  0
  -14.0757   14.6294  -25.0317 H   0  0  0  0  0  0  0  0  0  0  0  0
  -11.6796   15.4332  -24.0828 H   0  0  0  0  0  0  0  0  0  0  0  0
  -11.3464   13.6889  -22.6378 H   0  0  0  0  0  0  0  0  0  0  0  0
  -12.5068   11.7492  -22.7807 H   0  0  0  0  0  0  0  0  0  0  0  0
  -14.0672   11.5613  -25.9628 H   0  0  0  0  0  0  0  0  0  0  0  0
   -8.2030    9.3032  -24.2845 H   0  0  0  0  0  0  0  0  0  0  0  0
  -11.6289    7.7406  -28.0515 H   0  0  0  0  0  0  0  0  0  0  0  0
   -9.8992    7.8149  -28.4734 H   0  0  0  0  0  0  0  0  0  0  0  0
   -9.4745   12.9212  -23.4276 H   0  0  0  0  0  0  0  0  0  0  0  0
  -12.4810   14.6597  -26.3785 H   0  0  0  0  0  0  0  0  0  0  0  0
  1  2  1  0
  2  3  1  0
  3  4  1  0
  4  5  1  0
  5  6  1  0
  5  7  1  0
  7  8  1  0
  8  9  2  0
  9 10  1  0
 10 11  2  0
 11 12  1  0
 12 13  2  0
 13 14  1  0
 14 15  2  0
 15 16  1  0
  4 17  1  0
  3 18  1  0
  6  2  1  0
 11  7  1  0
 15 10  1  0
  1 19  1  0
  1 20  1  0
  2 21  1  0
  3 22  1  0
  4 23  1  0
  5 24  1  0
  8 25  1  0
 13 26  1  0
 16 27  1  0
 16 28  1  0
 17 29  1  0
 18 30  1  0
M  RAD  1   1   2
M  END
$$$$

     RDKit          3D

 30 32  0  0  0  0  0  0  0  0999 V2000
  -12.0669   15.6265  -24.7174 C   0  0  0  0  0  3  0  0  0  0  0  0
  -13.1036   14.6402  -24.2177 C   0  0  0  0  0  0  0  0  0  0  0  0
  -12.5465   13.8179  -23.0649 C   0  0  0  0  0  0  0  0  0  0  0  0
  -11.5136   12.9701  -23.8033 C   0  0  0  0  0  0  0  0  0  0  0  0
  -12.0515   12.9733  -25.2034 C   0  0  0  0  0  0  0  0  0  0  0  0
  -13.2683   13.6215  -25.1845 O   0  0  0  0  0  0  0  0  0  0  0  0
  -12.1572   11.6007  -25.6520 N   0  0  0  0  0  0  0  0  0  0  0  0
  -13.1934   10.9428  -26.1771 C   0  0  0  0  0  0  0  0  0  0  0  0
  -12.8056    9.6797  -26.4374 N   0  0  0  0  0  0  0  0  0  0  0  0
  -11.5239    9.5188  -26.0829 C   0  0  0  0  0  0  0  0  0  0  0  0
  -11.1164   10.7402  -25.5851 C   0  0  0  0  0  0  0  0  0  0  0  0
   -9.8526   10.8466  -25.1553 N   0  0  0  0  0  0  0  0  0  0  0  0
   -8.9930    9.8319  -25.1920 C   0  0  0  0  0  0  0  0  0  0  0  0
   -9.4085    8.6485  -25.6808 N   0  0  0  0  0  0  0  0  0  0  0  0
  -10.6589    8.4482  -26.1347 C   0  0  0  0  0  0  0  0  0  0  0  0
  -11.0911    7.1997  -26.6485 N   0  0  0  0  0  0  0  0  0  0  0  0
  -10.2502   13.5410  -23.7105 O   0  0  0  0  0  0  0  0  0  0  0  0
  -13.5258   12.9604  -22.6084 O   0  0  0  0  0  0  0  0  0  0  0  0
  -11.7802   15.4594  -25.7600 H   0  0  0  0  0  0  0  0  0  0  0  0
  -11.2348   15.7667  -24.0176 H   0  0  0  0  0  0  0  0  0  0  0  0
  -14.0569   15.1195  -23.9705 H   0  0  0  0  0  0  0  0  0  0  0  0
  -12.0877   14.4408  -22.2826 H   0  0  0  0  0  0  0  0  0  0  0  0
  -11.4707   11.9709  -23.3470 H   0  0  0  0  0  0  0  0  0  0  0  0
  -11.3194   13.4697  -25.8908 H   0  0  0  0  0  0  0  0  0  0  0  0
  -14.1862   11.3755  -26.3584 H   0  0  0  0  0  0  0  0  0  0  0  0
   -7.9740    9.9803  -24.8266 H   0  0  0  0  0  0  0  0  0  0  0  0
  -11.9584    6.7616  -26.3437 H   0  0  0  0  0  0  0  0  0  0  0  0
  -10.4842    6.7411  -27.3563 H   0  0  0  0  0  0  0  0  0  0  0  0
   -9.8214   13.2079  -22.8590 H   0  0  0  0  0  0  0  0  0  0  0  0
  -14.1228   12.7150  -23.3687 H   0  0  0  0  0  0  0  0  0  0  0  0
  1  2  1  0
  2  3  1  0
  3  4  1  0
  4  5  1  0
  5  6  1  0
  5  7  1  0
  7  8  1  0
  8  9  2  0
  9 10  1  0
 10 11  2  0
 11 12  1  0
 12 13  2  0
 13 14  1  0
 14 15  2  0
 15 16  1  0
  4 17  1  0
  3 18  1  0
  6  2  1  0
 11  7  1  0
 15 10  1  0
  1 19  1  0
  1 20  1  0
  2 21  1  0
  3 22  1  0
  4 23  1  0
  5 24  1  0
  8 25  1  0
 13 26  1  0
 16 27  1  0
 16 28  1  0
 17 29  1  0
 18 30  1  0
M  RAD  1   1   2
M  END
$$$$

     RDKit          3D

 30 32  0  0  0  0  0  0  0  0999 V2000
  -13.7075   15.5693  -24.4259 C   0  0  0  0  0  3  0  0  0  0  0  0
  -13.4634   14.2089  -23.8296 C   0  0  0  0  0  0  0  0  0  0  0  0
  -12.0719   14.2478  -23.1964 C   0  0  0  0  0  0  0  0  0  0  0  0
  -11.4252   13.0034  -23.7821 C   0  0  0  0  0  0  0  0  0  0  0  0
  -12.6646   12.2292  -24.1797 C   0  0  0  0  0  0  0  0  0  0  0  0
  -13.4084   13.2109  -24.8026 O   0  0  0  0  0  0  0  0  0  0  0  0
  -12.3707   11.1063  -25.0263 N   0  0  0  0  0  0  0  0  0  0  0  0
  -13.2870   10.4980  -25.7980 C   0  0  0  0  0  0  0  0  0  0  0  0
  -12.7222    9.4813  -26.4777 N   0  0  0  0  0  0  0  0  0  0  0  0
  -11.4426    9.4233  -26.1533 C   0  0  0  0  0  0  0  0  0  0  0  0
  -11.2204   10.4501  -25.2362 C   0  0  0  0  0  0  0  0  0  0  0  0
  -10.0042   10.6092  -24.7500 N   0  0  0  0  0  0  0  0  0  0  0  0
   -8.9930    9.8082  -25.1206 C   0  0  0  0  0  0  0  0  0  0  0  0
   -9.2110    8.8161  -26.0077 N   0  0  0  0  0  0  0  0  0  0  0  0
  -10.4162    8.5900  -26.5463 C   0  0  0  0  0  0  0  0  0  0  0  0
  -10.6516    7.5548  -27.4743 N   0  0  0  0  0  0  0  0  0  0  0  0
  -10.6891   13.4112  -24.8830 O   0  0  0  0  0  0  0  0  0  0  0  0
  -11.3778   15.3900  -23.5663 O   0  0  0  0  0  0  0  0  0  0  0  0
  -14.8054   15.7744  -24.5015 H   0  0  0  0  0  0  0  0  0  0  0  0
  -13.3251   16.3149  -23.6916 H   0  0  0  0  0  0  0  0  0  0  0  0
  -14.2434   13.9679  -23.0934 H   0  0  0  0  0  0  0  0  0  0  0  0
  -12.1863   14.1630  -22.0896 H   0  0  0  0  0  0  0  0  0  0  0  0
  -10.8183   12.4610  -23.0314 H   0  0  0  0  0  0  0  0  0  0  0  0
  -13.1830   11.9535  -23.2381 H   0  0  0  0  0  0  0  0  0  0  0  0
  -14.3512   10.7413  -25.9059 H   0  0  0  0  0  0  0  0  0  0  0  0
   -7.9762    9.9448  -24.7112 H   0  0  0  0  0  0  0  0  0  0  0  0
  -10.8785    6.5837  -27.1457 H   0  0  0  0  0  0  0  0  0  0  0  0
  -10.6190    7.6732  -28.5180 H   0  0  0  0  0  0  0  0  0  0  0  0
  -10.1512   14.2112  -24.7282 H   0  0  0  0  0  0  0  0  0  0  0  0
  -10.7812   15.6326  -22.8010 H   0  0  0  0  0  0  0  0  0  0  0  0
  1  2  1  0
  2  3  1  0
  3  4  1  0
  4  5  1  0
  5  6  1  0
  5  7  1  0
  7  8  1  0
  8  9  2  0
  9 10  1  0
 10 11  2  0
 11 12  1  0
 12 13  2  0
 13 14  1  0
 14 15  2  0
 15 16  1  0
  4 17  1  0
  3 18  1  0
  6  2  1  0
 11  7  1  0
 15 10  1  0
  1 19  1  0
  1 20  1  0
  2 21  1  0
  3 22  1  0
  4 23  1  0
  5 24  1  0
  8 25  1  0
 13 26  1  0
 16 27  1  0
 16 28  1  0
 17 29  1  0
 18 30  1  0
M  RAD  1   1   2
M  END
$$$$

     RDKit          3D

 30 32  0  0  0  0  0  0  0  0999 V2000
  -14.1991   15.2943  -24.6451 C   0  0  0  0  0  3  0  0  0  0  0  0
  -13.0920   14.3293  -24.9863 C   0  0  0  0  0  0  0  0  0  0  0  0
  -11.8051   14.6626  -24.2576 C   0  0  0  0  0  0  0  0  0  0  0  0
  -11.1490   13.2741  -24.2714 C   0  0  0  0  0  0  0  0  0  0  0  0
  -12.3593   12.3992  -24.1225 C   0  0  0  0  0  0  0  0  0  0  0  0
  -13.4565   13.0809  -24.5603 O   0  0  0  0  0  0  0  0  0  0  0  0
  -12.2468   11.1624  -24.8630 N   0  0  0  0  0  0  0  0  0  0  0  0
  -13.3163   10.4385  -25.2399 C   0  0  0  0  0  0  0  0  0  0  0  0
  -12.8528    9.3620  -25.9027 N   0  0  0  0  0  0  0  0  0  0  0  0
  -11.5228    9.3952  -25.9493 C   0  0  0  0  0  0  0  0  0  0  0  0
  -11.1455   10.5418  -25.2867 C   0  0  0  0  0  0  0  0  0  0  0  0
   -9.8412   10.8230  -25.1846 N   0  0  0  0  0  0  0  0  0  0  0  0
   -8.9292    9.9980  -25.7203 C   0  0  0  0  0  0  0  0  0  0  0  0
   -9.2983    8.8787  -26.3670 N   0  0  0  0  0  0  0  0  0  0  0  0
  -10.5963    8.5289  -26.5102 C   0  0  0  0  0  0  0  0  0  0  0  0
  -10.9775    7.3437  -27.1955 N   0  0  0  0  0  0  0  0  0  0  0  0
  -10.2356   13.1199  -23.2612 O   0  0  0  0  0  0  0  0  0  0  0  0
  -12.1037   14.9754  -22.9325 O   0  0  0  0  0  0  0  0  0  0  0  0
  -14.5695   15.1682  -23.6112 H   0  0  0  0  0  0  0  0  0  0  0  0
  -13.9378   16.3436  -24.8875 H   0  0  0  0  0  0  0  0  0  0  0  0
  -12.9029   14.3913  -26.0764 H   0  0  0  0  0  0  0  0  0  0  0  0
  -11.1945   15.4066  -24.7646 H   0  0  0  0  0  0  0  0  0  0  0  0
  -10.7017   13.1845  -25.2931 H   0  0  0  0  0  0  0  0  0  0  0  0
  -12.4413   12.1547  -23.0268 H   0  0  0  0  0  0  0  0  0  0  0  0
  -14.3683   10.6158  -25.0821 H   0  0  0  0  0  0  0  0  0  0  0  0
   -7.8574   10.1889  -25.6603 H   0  0  0  0  0  0  0  0  0  0  0  0
  -10.4710    6.4352  -26.9964 H   0  0  0  0  0  0  0  0  0  0  0  0
  -11.7614    7.4013  -27.8900 H   0  0  0  0  0  0  0  0  0  0  0  0
   -9.5903   13.8766  -23.3178 H   0  0  0  0  0  0  0  0  0  0  0  0
  -12.8203   14.3352  -22.6453 H   0  0  0  0  0  0  0  0  0  0  0  0
  1  2  1  0
  2  3  1  0
  3  4  1  0
  4  5  1  0
  5  6  1  0
  5  7  1  0
  7  8  1  0
  8  9  2  0
  9 10  1  0
 10 11  2  0
 11 12  1  0
 12 13  2  0
 13 14  1  0
 14 15  2  0
 15 16  1  0
  4 17  1  0
  3 18  1  0
  6  2  1  0
 11  7  1  0
 15 10  1  0
  1 19  1  0
  1 20  1  0
  2 21  1  0
  3 22  1  0
  4 23  1  0
  5 24  1  0
  8 25  1  0
 13 26  1  0
 16 27  1  0
 16 28  1  0
 17 29  1  0
 18 30  1  0
M  RAD  1   1   2
M  END
$$$$

     RDKit          3D

 30 32  0  0  0  0  0  0  0  0999 V2000
  -11.3154   14.8158  -22.5423 C   0  0  0  0  0  3  0  0  0  0  0  0
  -12.3783   13.8463  -22.9428 C   0  0  0  0  0  0  0  0  0  0  0  0
  -13.3029   14.3869  -24.0071 C   0  0  0  0  0  0  0  0  0  0  0  0
  -12.9516   13.5459  -25.2083 C   0  0  0  0  0  0  0  0  0  0  0  0
  -11.6045   12.9575  -24.7797 C   0  0  0  0  0  0  0  0  0  0  0  0
  -11.8598   12.6449  -23.4516 O   0  0  0  0  0  0  0  0  0  0  0  0
  -11.3836   11.7954  -25.5980 N   0  0  0  0  0  0  0  0  0  0  0  0
  -11.5124   11.8243  -26.9532 C   0  0  0  0  0  0  0  0  0  0  0  0
  -11.2403   10.5776  -27.4389 N   0  0  0  0  0  0  0  0  0  0  0  0
  -10.9455    9.7828  -26.3946 C   0  0  0  0  0  0  0  0  0  0  0  0
  -11.0365   10.5468  -25.2523 C   0  0  0  0  0  0  0  0  0  0  0  0
  -10.7923   10.0086  -24.0473 N   0  0  0  0  0  0  0  0  0  0  0  0
  -10.4542    8.6861  -24.0109 C   0  0  0  0  0  0  0  0  0  0  0  0
  -10.3634    7.9357  -25.1172 N   0  0  0  0  0  0  0  0  0  0  0  0
  -10.6027    8.4441  -26.3522 C   0  0  0  0  0  0  0  0  0  0  0  0
  -10.5058    7.6505  -27.5121 N   0  0  0  0  0  0  0  0  0  0  0  0
  -13.8271   12.4515  -25.3195 O   0  0  0  0  0  0  0  0  0  0  0  0
  -13.0507   15.7073  -24.3280 O   0  0  0  0  0  0  0  0  0  0  0  0
  -10.3909   14.7551  -23.1506 H   0  0  0  0  0  0  0  0  0  0  0  0
  -11.6820   15.8637  -22.6372 H   0  0  0  0  0  0  0  0  0  0  0  0
  -13.0077   13.6467  -22.0456 H   0  0  0  0  0  0  0  0  0  0  0  0
  -14.3734   14.2017  -23.7826 H   0  0  0  0  0  0  0  0  0  0  0  0
  -12.8898   14.1027  -26.1410 H   0  0  0  0  0  0  0  0  0  0  0  0
  -10.8296   13.7185  -24.8520 H   0  0  0  0  0  0  0  0  0  0  0  0
  -11.7837   12.6885  -27.5387 H   0  0  0  0  0  0  0  0  0  0  0  0
  -10.2421    8.1814  -23.0693 H   0  0  0  0  0  0  0  0  0  0  0  0
  -11.2273    6.9364  -27.6996 H   0  0  0  0  0  0  0  0  0  0  0  0
   -9.7289    7.7657  -28.1810 H   0  0  0  0  0  0  0  0  0  0  0  0
  -14.4207   12.4090  -24.5101 H   0  0  0  0  0  0  0  0  0  0  0  0
  -13.5635   16.2826  -23.7383 H   0  0  0  0  0  0  0  0  0  0  0  0
  1  2  1  0
  2  3  1  0
  3  4  1  0
  4  5  1  0
  5  6  1  0
  5  7  1  0
  7  8  1  0
  8  9  2  0
  9 10  1  0
 10 11  2  0
 11 12  1  0
 12 13  2  0
 13 14  1  0
 14 15  2  0
 15 16  1  0
  4 17  1  0
  3 18  1  0
  6  2  1  0
 11  7  1  0
 15 10  1  0
  1 19  1  0
  1 20  1  0
  2 21  1  0
  3 22  1  0
  4 23  1  0
  5 24  1  0
  8 25  1  0
 13 26  1  0
 16 27  1  0
 16 28  1  0
 17 29  1  0
 18 30  1  0
M  RAD  1   1   2
M  END
$$$$

     RDKit          3D

 30 32  0  0  0  0  0  0  0  0999 V2000
  -14.0908   15.3688  -24.0528 C   0  0  0  0  0  3  0  0  0  0  0  0
  -13.1418   14.3037  -23.6346 C   0  0  0  0  0  0  0  0  0  0  0  0
  -11.7577   14.4846  -24.2681 C   0  0  0  0  0  0  0  0  0  0  0  0
  -11.1626   13.1097  -23.9633 C   0  0  0  0  0  0  0  0  0  0  0  0
  -12.3751   12.2431  -23.9436 C   0  0  0  0  0  0  0  0  0  0  0  0
  -13.4875   13.0538  -24.1454 O   0  0  0  0  0  0  0  0  0  0  0  0
  -12.3161   11.1570  -24.9000 N   0  0  0  0  0  0  0  0  0  0  0  0
  -13.3534   10.6512  -25.5880 C   0  0  0  0  0  0  0  0  0  0  0  0
  -12.8511    9.6674  -26.3521 N   0  0  0  0  0  0  0  0  0  0  0  0
  -11.5265    9.5472  -26.1575 C   0  0  0  0  0  0  0  0  0  0  0  0
  -11.1740   10.5036  -25.2231 C   0  0  0  0  0  0  0  0  0  0  0  0
   -9.8892   10.5875  -24.8555 N   0  0  0  0  0  0  0  0  0  0  0  0
   -8.9055    9.8041  -25.3308 C   0  0  0  0  0  0  0  0  0  0  0  0
   -9.2593    8.8740  -26.2420 N   0  0  0  0  0  0  0  0  0  0  0  0
  -10.5299    8.7377  -26.6532 C   0  0  0  0  0  0  0  0  0  0  0  0
  -10.8495    7.7482  -27.6098 N   0  0  0  0  0  0  0  0  0  0  0  0
  -10.5638   13.2083  -22.6894 O   0  0  0  0  0  0  0  0  0  0  0  0
  -11.8934   14.5581  -25.6468 O   0  0  0  0  0  0  0  0  0  0  0  0
  -14.6064   15.1494  -25.0030 H   0  0  0  0  0  0  0  0  0  0  0  0
  -13.5047   16.3305  -24.1180 H   0  0  0  0  0  0  0  0  0  0  0  0
  -13.0263   14.2015  -22.5435 H   0  0  0  0  0  0  0  0  0  0  0  0
  -11.1953   15.2997  -23.8276 H   0  0  0  0  0  0  0  0  0  0  0  0
  -10.4430   12.8998  -24.7518 H   0  0  0  0  0  0  0  0  0  0  0  0
  -12.5389   11.7542  -22.9394 H   0  0  0  0  0  0  0  0  0  0  0  0
  -14.3929   10.9836  -25.5282 H   0  0  0  0  0  0  0  0  0  0  0  0
   -7.8656    9.9109  -24.9984 H   0  0  0  0  0  0  0  0  0  0  0  0
  -10.4077    7.7755  -28.5483 H   0  0  0  0  0  0  0  0  0  0  0  0
  -11.5249    6.9938  -27.3769 H   0  0  0  0  0  0  0  0  0  0  0  0
  -11.0455   12.6535  -22.0207 H   0  0  0  0  0  0  0  0  0  0  0  0
  -12.6952   14.0739  -25.9612 H   0  0  0  0  0  0  0  0  0  0  0  0
  1  2  1  0
  2  3  1  0
  3  4  1  0
  4  5  1  0
  5  6  1  0
  5  7  1  0
  7  8  1  0
  8  9  2  0
  9 10  1  0
 10 11  2  0
 11 12  1  0
 12 13  2  0
 13 14  1  0
 14 15  2  0
 15 16  1  0
  4 17  1  0
  3 18  1  0
  6  2  1  0
 11  7  1  0
 15 10  1  0
  1 19  1  0
  1 20  1  0
  2 21  1  0
  3 22  1  0
  4 23  1  0
  5 24  1  0
  8 25  1  0
 13 26  1  0
 16 27  1  0
 16 28  1  0
 17 29  1  0
 18 30  1  0
M  RAD  1   1   2
M  END
$$$$

     RDKit          3D

 30 32  0  0  0  0  0  0  0  0999 V2000
  -14.3367   15.1460  -24.5855 C   0  0  0  0  0  3  0  0  0  0  0  0
  -13.2383   14.1270  -24.7300 C   0  0  0  0  0  0  0  0  0  0  0  0
  -12.0027   14.5376  -23.9306 C   0  0  0  0  0  0  0  0  0  0  0  0
  -11.2484   13.1992  -23.9703 C   0  0  0  0  0  0  0  0  0  0  0  0
  -12.3958   12.2400  -23.8731 C   0  0  0  0  0  0  0  0  0  0  0  0
  -13.5556   12.9156  -24.1645 O   0  0  0  0  0  0  0  0  0  0  0  0
  -12.2629   11.0989  -24.7378 N   0  0  0  0  0  0  0  0  0  0  0  0
  -13.3028   10.3994  -25.2234 C   0  0  0  0  0  0  0  0  0  0  0  0
  -12.8625    9.3924  -25.9991 N   0  0  0  0  0  0  0  0  0  0  0  0
  -11.5240    9.4109  -26.0382 C   0  0  0  0  0  0  0  0  0  0  0  0
  -11.1656   10.4988  -25.2331 C   0  0  0  0  0  0  0  0  0  0  0  0
   -9.8823   10.7731  -25.0772 N   0  0  0  0  0  0  0  0  0  0  0  0
   -8.9214   10.0420  -25.6657 C   0  0  0  0  0  0  0  0  0  0  0  0
   -9.2881    9.0010  -26.4351 N   0  0  0  0  0  0  0  0  0  0  0  0
  -10.5623    8.6390  -26.6575 C   0  0  0  0  0  0  0  0  0  0  0  0
  -10.9409    7.5388  -27.4710 N   0  0  0  0  0  0  0  0  0  0  0  0
  -10.3412   13.1001  -22.9384 O   0  0  0  0  0  0  0  0  0  0  0  0
  -11.2953   15.5483  -24.5253 O   0  0  0  0  0  0  0  0  0  0  0  0
  -14.6958   15.1868  -23.5394 H   0  0  0  0  0  0  0  0  0  0  0  0
  -15.1690   14.8222  -25.2420 H   0  0  0  0  0  0  0  0  0  0  0  0
  -12.9454   14.0488  -25.7972 H   0  0  0  0  0  0  0  0  0  0  0  0
  -12.3269   14.7591  -22.8905 H   0  0  0  0  0  0  0  0  0  0  0  0
  -10.7494   13.1140  -24.9532 H   0  0  0  0  0  0  0  0  0  0  0  0
  -12.4645   11.9361  -22.7880 H   0  0  0  0  0  0  0  0  0  0  0  0
  -14.3555   10.6153  -25.0192 H   0  0  0  0  0  0  0  0  0  0  0  0
   -7.8548   10.2909  -25.5204 H   0  0  0  0  0  0  0  0  0  0  0  0
  -11.6228    6.8006  -27.1362 H   0  0  0  0  0  0  0  0  0  0  0  0
  -10.5652    7.4136  -28.4254 H   0  0  0  0  0  0  0  0  0  0  0  0
   -9.4161   13.1853  -23.3242 H   0  0  0  0  0  0  0  0  0  0  0  0
  -11.3685   16.3907  -24.0109 H   0  0  0  0  0  0  0  0  0  0  0  0
  1  2  1  0
  2  3  1  0
  3  4  1  0
  4  5  1  0
  5  6  1  0
  5  7  1  0
  7  8  1  0
  8  9  2  0
  9 10  1  0
 10 11  2  0
 11 12  1  0
 12 13  2  0
 13 14  1  0
 14 15  2  0
 15 16  1  0
  4 17  1  0
  3 18  1  0
  6  2  1  0
 11  7  1  0
 15 10  1  0
  1 19  1  0
  1 20  1  0
  2 21  1  0
  3 22  1  0
  4 23  1  0
  5 24  1  0
  8 25  1  0
 13 26  1  0
 16 27  1  0
 16 28  1  0
 17 29  1  0
 18 30  1  0
M  RAD  1   1   2
M  END
$$$$

     RDKit          3D

 30 32  0  0  0  0  0  0  0  0999 V2000
  -14.6074   14.8324  -23.5826 C   0  0  0  0  0  3  0  0  0  0  0  0
  -13.5912   14.0559  -24.3890 C   0  0  0  0  0  0  0  0  0  0  0  0
  -12.2491   14.7916  -24.4472 C   0  0  0  0  0  0  0  0  0  0  0  0
  -11.3537   13.6403  -24.9061 C   0  0  0  0  0  0  0  0  0  0  0  0
  -12.0134   12.4809  -24.1977 C   0  0  0  0  0  0  0  0  0  0  0  0
  -13.2533   12.8738  -23.7890 O   0  0  0  0  0  0  0  0  0  0  0  0
  -12.0123   11.3540  -25.0903 N   0  0  0  0  0  0  0  0  0  0  0  0
  -12.9624   11.0245  -25.9699 C   0  0  0  0  0  0  0  0  0  0  0  0
  -12.6225    9.9105  -26.6318 N   0  0  0  0  0  0  0  0  0  0  0  0
  -11.4388    9.5352  -26.1590 C   0  0  0  0  0  0  0  0  0  0  0  0
  -11.0443   10.4297  -25.1932 C   0  0  0  0  0  0  0  0  0  0  0  0
   -9.8583   10.2419  -24.5702 N   0  0  0  0  0  0  0  0  0  0  0  0
   -9.0638    9.2077  -24.8731 C   0  0  0  0  0  0  0  0  0  0  0  0
   -9.4648    8.3457  -25.8174 N   0  0  0  0  0  0  0  0  0  0  0  0
  -10.6132    8.4469  -26.4845 C   0  0  0  0  0  0  0  0  0  0  0  0
  -11.0361    7.5382  -27.4802 N   0  0  0  0  0  0  0  0  0  0  0  0
  -10.0450   13.8112  -24.5198 O   0  0  0  0  0  0  0  0  0  0  0  0
  -11.8973   15.0875  -23.1549 O   0  0  0  0  0  0  0  0  0  0  0  0
  -15.5353   15.0407  -24.1454 H   0  0  0  0  0  0  0  0  0  0  0  0
  -14.2074   15.7392  -23.1293 H   0  0  0  0  0  0  0  0  0  0  0  0
  -13.9604   13.9557  -25.4244 H   0  0  0  0  0  0  0  0  0  0  0  0
  -12.2555   15.6279  -25.1399 H   0  0  0  0  0  0  0  0  0  0  0  0
  -11.4197   13.5216  -26.0269 H   0  0  0  0  0  0  0  0  0  0  0  0
  -11.4013   12.2060  -23.2880 H   0  0  0  0  0  0  0  0  0  0  0  0
  -13.9038   11.5536  -26.1631 H   0  0  0  0  0  0  0  0  0  0  0  0
   -8.1080    9.0894  -24.3448 H   0  0  0  0  0  0  0  0  0  0  0  0
  -11.9431    7.0519  -27.3683 H   0  0  0  0  0  0  0  0  0  0  0  0
  -10.4685    7.3393  -28.3232 H   0  0  0  0  0  0  0  0  0  0  0  0
   -9.8262   13.2790  -23.7124 H   0  0  0  0  0  0  0  0  0  0  0  0
  -12.0897   14.2632  -22.6070 H   0  0  0  0  0  0  0  0  0  0  0  0
  1  2  1  0
  2  3  1  0
  3  4  1  0
  4  5  1  0
  5  6  1  0
  5  7  1  0
  7  8  1  0
  8  9  2  0
  9 10  1  0
 10 11  2  0
 11 12  1  0
 12 13  2  0
 13 14  1  0
 14 15  2  0
 15 16  1  0
  4 17  1  0
  3 18  1  0
  6  2  1  0
 11  7  1  0
 15 10  1  0
  1 19  1  0
  1 20  1  0
  2 21  1  0
  3 22  1  0
  4 23  1  0
  5 24  1  0
  8 25  1  0
 13 26  1  0
 16 27  1  0
 16 28  1  0
 17 29  1  0
 18 30  1  0
M  RAD  1   1   2
M  END
$$$$

     RDKit          3D

 30 32  0  0  0  0  0  0  0  0999 V2000
  -13.0175   15.9484  -24.8365 C   0  0  0  0  0  3  0  0  0  0  0  0
  -12.9977   14.4162  -24.9017 C   0  0  0  0  0  0  0  0  0  0  0  0
  -13.0292   13.8987  -23.5070 C   0  0  0  0  0  0  0  0  0  0  0  0
  -11.7770   13.0696  -23.3740 C   0  0  0  0  0  0  0  0  0  0  0  0
  -11.3100   12.9525  -24.7898 C   0  0  0  0  0  0  0  0  0  0  0  0
  -11.8552   13.9887  -25.5166 O   0  0  0  0  0  0  0  0  0  0  0  0
  -11.6452   11.6595  -25.2938 N   0  0  0  0  0  0  0  0  0  0  0  0
  -12.8570   11.2151  -25.6831 C   0  0  0  0  0  0  0  0  0  0  0  0
  -12.7837    9.9378  -26.1013 N   0  0  0  0  0  0  0  0  0  0  0  0
  -11.5215    9.5436  -25.9861 C   0  0  0  0  0  0  0  0  0  0  0  0
  -10.8065   10.6103  -25.4839 C   0  0  0  0  0  0  0  0  0  0  0  0
   -9.4719   10.4541  -25.2738 N   0  0  0  0  0  0  0  0  0  0  0  0
   -8.8835    9.2769  -25.5565 C   0  0  0  0  0  0  0  0  0  0  0  0
   -9.5972    8.2467  -26.0461 N   0  0  0  0  0  0  0  0  0  0  0  0
  -10.9257    8.3183  -26.2836 C   0  0  0  0  0  0  0  0  0  0  0  0
  -11.6639    7.2300  -26.7977 N   0  0  0  0  0  0  0  0  0  0  0  0
  -10.8138   13.7049  -22.5931 O   0  0  0  0  0  0  0  0  0  0  0  0
  -14.1705   13.1366  -23.2312 O   0  0  0  0  0  0  0  0  0  0  0  0
  -13.0577   16.2788  -25.9154 H   0  0  0  0  0  0  0  0  0  0  0  0
  -14.0421   16.2003  -24.4410 H   0  0  0  0  0  0  0  0  0  0  0  0
  -13.9389   14.1489  -25.4594 H   0  0  0  0  0  0  0  0  0  0  0  0
  -12.9612   14.7200  -22.7524 H   0  0  0  0  0  0  0  0  0  0  0  0
  -11.9547   12.0829  -22.9261 H   0  0  0  0  0  0  0  0  0  0  0  0
  -10.1876   13.0479  -24.7826 H   0  0  0  0  0  0  0  0  0  0  0  0
  -13.7916   11.7638  -25.6815 H   0  0  0  0  0  0  0  0  0  0  0  0
   -7.8173    9.2110  -25.3688 H   0  0  0  0  0  0  0  0  0  0  0  0
  -11.1849    6.5282  -27.3844 H   0  0  0  0  0  0  0  0  0  0  0  0
  -12.6711    7.1143  -26.6042 H   0  0  0  0  0  0  0  0  0  0  0  0
  -10.1017   14.1231  -23.1625 H   0  0  0  0  0  0  0  0  0  0  0  0
  -14.8296   13.3496  -23.9484 H   0  0  0  0  0  0  0  0  0  0  0  0
  1  2  1  0
  2  3  1  0
  3  4  1  0
  4  5  1  0
  5  6  1  0
  5  7  1  0
  7  8  1  0
  8  9  2  0
  9 10  1  0
 10 11  2  0
 11 12  1  0
 12 13  2  0
 13 14  1  0
 14 15  2  0
 15 16  1  0
  4 17  1  0
  3 18  1  0
  6  2  1  0
 11  7  1  0
 15 10  1  0
  1 19  1  0
  1 20  1  0
  2 21  1  0
  3 22  1  0
  4 23  1  0
  5 24  1  0
  8 25  1  0
 13 26  1  0
 16 27  1  0
 16 28  1  0
 17 29  1  0
 18 30  1  0
M  RAD  1   1   2
M  END
$$$$

     RDKit          3D

 30 32  0  0  0  0  0  0  0  0999 V2000
  -13.3048   13.7087  -21.8630 C   0  0  0  0  0  3  0  0  0  0  0  0
  -12.3977   13.3895  -23.0299 C   0  0  0  0  0  0  0  0  0  0  0  0
  -12.1552   14.5968  -23.9046 C   0  0  0  0  0  0  0  0  0  0  0  0
  -11.7387   13.8762  -25.1961 C   0  0  0  0  0  0  0  0  0  0  0  0
  -12.6912   12.6988  -25.1400 C   0  0  0  0  0  0  0  0  0  0  0  0
  -12.9702   12.4414  -23.8286 O   0  0  0  0  0  0  0  0  0  0  0  0
  -12.1763   11.5506  -25.8577 N   0  0  0  0  0  0  0  0  0  0  0  0
  -12.3231   11.3036  -27.1659 C   0  0  0  0  0  0  0  0  0  0  0  0
  -11.7172   10.1464  -27.4994 N   0  0  0  0  0  0  0  0  0  0  0  0
  -11.1629    9.6274  -26.3828 C   0  0  0  0  0  0  0  0  0  0  0  0
  -11.4619   10.5226  -25.3646 C   0  0  0  0  0  0  0  0  0  0  0  0
  -11.0259   10.2473  -24.1363 N   0  0  0  0  0  0  0  0  0  0  0  0
  -10.3168    9.1274  -23.9091 C   0  0  0  0  0  0  0  0  0  0  0  0
  -10.0191    8.2435  -24.9035 N   0  0  0  0  0  0  0  0  0  0  0  0
  -10.4371    8.4784  -26.1576 C   0  0  0  0  0  0  0  0  0  0  0  0
  -10.1212    7.5580  -27.1663 N   0  0  0  0  0  0  0  0  0  0  0  0
  -11.9458   14.6703  -26.3100 O   0  0  0  0  0  0  0  0  0  0  0  0
  -11.1619   15.4212  -23.4404 O   0  0  0  0  0  0  0  0  0  0  0  0
  -13.3473   12.7931  -21.2371 H   0  0  0  0  0  0  0  0  0  0  0  0
  -12.9537   14.5883  -21.2872 H   0  0  0  0  0  0  0  0  0  0  0  0
  -11.4019   13.0842  -22.6282 H   0  0  0  0  0  0  0  0  0  0  0  0
  -13.1189   15.1083  -24.0974 H   0  0  0  0  0  0  0  0  0  0  0  0
  -10.6783   13.5583  -25.0920 H   0  0  0  0  0  0  0  0  0  0  0  0
  -13.6477   13.0684  -25.6145 H   0  0  0  0  0  0  0  0  0  0  0  0
  -12.8420   11.9098  -27.8939 H   0  0  0  0  0  0  0  0  0  0  0  0
   -9.9808    8.9400  -22.8975 H   0  0  0  0  0  0  0  0  0  0  0  0
  -10.8143    6.7981  -27.3878 H   0  0  0  0  0  0  0  0  0  0  0  0
   -9.2460    7.5566  -27.7285 H   0  0  0  0  0  0  0  0  0  0  0  0
  -12.1458   14.0586  -27.0716 H   0  0  0  0  0  0  0  0  0  0  0  0
  -11.5906   16.2313  -23.0176 H   0  0  0  0  0  0  0  0  0  0  0  0
  1  2  1  0
  2  3  1  0
  3  4  1  0
  4  5  1  0
  5  6  1  0
  5  7  1  0
  7  8  1  0
  8  9  2  0
  9 10  1  0
 10 11  2  0
 11 12  1  0
 12 13  2  0
 13 14  1  0
 14 15  2  0
 15 16  1  0
  4 17  1  0
  3 18  1  0
  6  2  1  0
 11  7  1  0
 15 10  1  0
  1 19  1  0
  1 20  1  0
  2 21  1  0
  3 22  1  0
  4 23  1  0
  5 24  1  0
  8 25  1  0
 13 26  1  0
 16 27  1  0
 16 28  1  0
 17 29  1  0
 18 30  1  0
M  RAD  1   1   2
M  END
$$$$

     RDKit          3D

 30 32  0  0  0  0  0  0  0  0999 V2000
  -14.7085   13.7218  -24.2692 C   0  0  0  0  0  3  0  0  0  0  0  0
  -13.4090   13.9236  -23.5115 C   0  0  0  0  0  0  0  0  0  0  0  0
  -12.5052   14.8457  -24.2830 C   0  0  0  0  0  0  0  0  0  0  0  0
  -11.6147   13.8801  -25.0221 C   0  0  0  0  0  0  0  0  0  0  0  0
  -11.7166   12.6372  -24.2078 C   0  0  0  0  0  0  0  0  0  0  0  0
  -12.7886   12.7191  -23.3742 O   0  0  0  0  0  0  0  0  0  0  0  0
  -11.8168   11.5145  -25.1477 N   0  0  0  0  0  0  0  0  0  0  0  0
  -12.7071   11.3593  -26.1418 C   0  0  0  0  0  0  0  0  0  0  0  0
  -12.4689   10.1932  -26.7805 N   0  0  0  0  0  0  0  0  0  0  0  0
  -11.4111    9.5811  -26.1960 C   0  0  0  0  0  0  0  0  0  0  0  0
  -11.0255   10.4278  -25.1815 C   0  0  0  0  0  0  0  0  0  0  0  0
   -9.9596   10.0247  -24.4324 N   0  0  0  0  0  0  0  0  0  0  0  0
   -9.3147    8.8695  -24.6618 C   0  0  0  0  0  0  0  0  0  0  0  0
   -9.7261    8.0566  -25.6765 N   0  0  0  0  0  0  0  0  0  0  0  0
  -10.7671    8.3885  -26.4544 C   0  0  0  0  0  0  0  0  0  0  0  0
  -11.1516    7.5054  -27.4951 N   0  0  0  0  0  0  0  0  0  0  0  0
  -10.2948   14.3292  -25.0017 O   0  0  0  0  0  0  0  0  0  0  0  0
  -11.7411   15.6308  -23.4188 O   0  0  0  0  0  0  0  0  0  0  0  0
  -14.5212   14.0060  -25.3254 H   0  0  0  0  0  0  0  0  0  0  0  0
  -14.9728   12.6248  -24.3110 H   0  0  0  0  0  0  0  0  0  0  0  0
  -13.6501   14.4141  -22.5315 H   0  0  0  0  0  0  0  0  0  0  0  0
  -13.0373   15.4969  -24.9964 H   0  0  0  0  0  0  0  0  0  0  0  0
  -11.9487   13.7287  -26.0807 H   0  0  0  0  0  0  0  0  0  0  0  0
  -10.8033   12.4937  -23.5999 H   0  0  0  0  0  0  0  0  0  0  0  0
  -13.4976   12.0553  -26.3999 H   0  0  0  0  0  0  0  0  0  0  0  0
   -8.4696    8.5370  -24.0777 H   0  0  0  0  0  0  0  0  0  0  0  0
  -12.0955    7.0222  -27.4201 H   0  0  0  0  0  0  0  0  0  0  0  0
  -10.5714    7.3003  -28.3248 H   0  0  0  0  0  0  0  0  0  0  0  0
   -9.8976   14.1748  -24.1078 H   0  0  0  0  0  0  0  0  0  0  0  0
  -11.0855   16.1509  -23.9415 H   0  0  0  0  0  0  0  0  0  0  0  0
  1  2  1  0
  2  3  1  0
  3  4  1  0
  4  5  1  0
  5  6  1  0
  5  7  1  0
  7  8  1  0
  8  9  2  0
  9 10  1  0
 10 11  2  0
 11 12  1  0
 12 13  2  0
 13 14  1  0
 14 15  2  0
 15 16  1  0
  4 17  1  0
  3 18  1  0
  6  2  1  0
 11  7  1  0
 15 10  1  0
  1 19  1  0
  1 20  1  0
  2 21  1  0
  3 22  1  0
  4 23  1  0
  5 24  1  0
  8 25  1  0
 13 26  1  0
 16 27  1  0
 16 28  1  0
 17 29  1  0
 18 30  1  0
M  RAD  1   1   2
M  END
$$$$

     RDKit          3D

 30 32  0  0  0  0  0  0  0  0999 V2000
  -11.4979   15.9637  -24.9553 C   0  0  0  0  0  3  0  0  0  0  0  0
  -12.4736   14.8461  -24.6558 C   0  0  0  0  0  0  0  0  0  0  0  0
  -12.3719   14.3805  -23.2266 C   0  0  0  0  0  0  0  0  0  0  0  0
  -12.3859   12.8755  -23.4068 C   0  0  0  0  0  0  0  0  0  0  0  0
  -11.6583   12.7721  -24.7346 C   0  0  0  0  0  0  0  0  0  0  0  0
  -12.3011   13.7605  -25.4747 O   0  0  0  0  0  0  0  0  0  0  0  0
  -11.8391   11.4772  -25.3513 N   0  0  0  0  0  0  0  0  0  0  0  0
  -12.9272   10.9588  -25.9289 C   0  0  0  0  0  0  0  0  0  0  0  0
  -12.6717    9.7190  -26.3797 N   0  0  0  0  0  0  0  0  0  0  0  0
  -11.3999    9.4151  -26.0965 C   0  0  0  0  0  0  0  0  0  0  0  0
  -10.8865   10.5328  -25.4479 C   0  0  0  0  0  0  0  0  0  0  0  0
   -9.5965   10.4591  -25.0597 N   0  0  0  0  0  0  0  0  0  0  0  0
   -8.8210    9.3838  -25.2704 C   0  0  0  0  0  0  0  0  0  0  0  0
   -9.3587    8.3247  -25.9017 N   0  0  0  0  0  0  0  0  0  0  0  0
  -10.6281    8.2965  -26.3271 C   0  0  0  0  0  0  0  0  0  0  0  0
  -11.1722    7.1700  -26.9896 N   0  0  0  0  0  0  0  0  0  0  0  0
  -13.7092   12.4441  -23.6029 O   0  0  0  0  0  0  0  0  0  0  0  0
  -13.4282   14.8285  -22.4464 O   0  0  0  0  0  0  0  0  0  0  0  0
  -11.9903   16.6721  -25.6362 H   0  0  0  0  0  0  0  0  0  0  0  0
  -11.1662   16.4329  -23.9967 H   0  0  0  0  0  0  0  0  0  0  0  0
  -13.5060   15.2279  -24.7993 H   0  0  0  0  0  0  0  0  0  0  0  0
  -11.3813   14.6325  -22.7875 H   0  0  0  0  0  0  0  0  0  0  0  0
  -11.8867   12.3347  -22.5991 H   0  0  0  0  0  0  0  0  0  0  0  0
  -10.5981   12.9982  -24.6383 H   0  0  0  0  0  0  0  0  0  0  0  0
  -13.8731   11.5157  -25.9969 H   0  0  0  0  0  0  0  0  0  0  0  0
   -7.7691    9.3698  -24.9339 H   0  0  0  0  0  0  0  0  0  0  0  0
  -10.5536    6.5306  -27.5725 H   0  0  0  0  0  0  0  0  0  0  0  0
  -12.1727    6.8949  -26.9578 H   0  0  0  0  0  0  0  0  0  0  0  0
  -14.1367   13.1296  -24.1917 H   0  0  0  0  0  0  0  0  0  0  0  0
  -13.6902   14.0778  -21.8581 H   0  0  0  0  0  0  0  0  0  0  0  0
  1  2  1  0
  2  3  1  0
  3  4  1  0
  4  5  1  0
  5  6  1  0
  5  7  1  0
  7  8  1  0
  8  9  2  0
  9 10  1  0
 10 11  2  0
 11 12  1  0
 12 13  2  0
 13 14  1  0
 14 15  2  0
 15 16  1  0
  4 17  1  0
  3 18  1  0
  6  2  1  0
 11  7  1  0
 15 10  1  0
  1 19  1  0
  1 20  1  0
  2 21  1  0
  3 22  1  0
  4 23  1  0
  5 24  1  0
  8 25  1  0
 13 26  1  0
 16 27  1  0
 16 28  1  0
 17 29  1  0
 18 30  1  0
M  RAD  1   1   2
M  END
$$$$

     RDKit          3D

 30 32  0  0  0  0  0  0  0  0999 V2000
  -14.5956   14.9083  -24.0645 C   0  0  0  0  0  3  0  0  0  0  0  0
  -13.4884   14.0771  -24.5641 C   0  0  0  0  0  0  0  0  0  0  0  0
  -12.1237   14.7440  -24.4546 C   0  0  0  0  0  0  0  0  0  0  0  0
  -11.2281   13.5269  -24.7187 C   0  0  0  0  0  0  0  0  0  0  0  0
  -12.0509   12.4255  -24.1060 C   0  0  0  0  0  0  0  0  0  0  0  0
  -13.3111   12.9096  -23.8693 O   0  0  0  0  0  0  0  0  0  0  0  0
  -12.0990   11.2965  -24.9847 N   0  0  0  0  0  0  0  0  0  0  0  0
  -13.1417   10.9124  -25.7092 C   0  0  0  0  0  0  0  0  0  0  0  0
  -12.7987    9.7958  -26.4162 N   0  0  0  0  0  0  0  0  0  0  0  0
  -11.5225    9.5010  -26.1112 C   0  0  0  0  0  0  0  0  0  0  0  0
  -11.0796   10.4492  -25.2064 C   0  0  0  0  0  0  0  0  0  0  0  0
   -9.8166   10.3474  -24.7600 N   0  0  0  0  0  0  0  0  0  0  0  0
   -8.9580    9.3982  -25.1259 C   0  0  0  0  0  0  0  0  0  0  0  0
   -9.3629    8.4704  -25.9996 N   0  0  0  0  0  0  0  0  0  0  0  0
  -10.6239    8.5136  -26.4896 C   0  0  0  0  0  0  0  0  0  0  0  0
  -11.0046    7.5222  -27.4015 N   0  0  0  0  0  0  0  0  0  0  0  0
   -9.9896   13.6642  -24.1391 O   0  0  0  0  0  0  0  0  0  0  0  0
  -11.9321   15.1457  -23.1354 O   0  0  0  0  0  0  0  0  0  0  0  0
  -14.4659   15.3843  -23.0953 H   0  0  0  0  0  0  0  0  0  0  0  0
  -15.2344   15.3920  -24.7798 H   0  0  0  0  0  0  0  0  0  0  0  0
  -13.6506   13.8510  -25.6334 H   0  0  0  0  0  0  0  0  0  0  0  0
  -11.9731   15.5377  -25.1844 H   0  0  0  0  0  0  0  0  0  0  0  0
  -11.2055   13.4036  -25.8184 H   0  0  0  0  0  0  0  0  0  0  0  0
  -11.5501   12.1273  -23.1376 H   0  0  0  0  0  0  0  0  0  0  0  0
  -14.1180   11.3857  -25.7541 H   0  0  0  0  0  0  0  0  0  0  0  0
   -7.9442    9.3251  -24.7611 H   0  0  0  0  0  0  0  0  0  0  0  0
  -10.2950    7.0141  -27.9852 H   0  0  0  0  0  0  0  0  0  0  0  0
  -11.9944    7.2476  -27.5405 H   0  0  0  0  0  0  0  0  0  0  0  0
   -9.8514   12.9630  -23.4261 H   0  0  0  0  0  0  0  0  0  0  0  0
  -11.0471   14.8778  -22.7769 H   0  0  0  0  0  0  0  0  0  0  0  0
  1  2  1  0
  2  3  1  0
  3  4  1  0
  4  5  1  0
  5  6  1  0
  5  7  1  0
  7  8  1  0
  8  9  2  0
  9 10  1  0
 10 11  2  0
 11 12  1  0
 12 13  2  0
 13 14  1  0
 14 15  2  0
 15 16  1  0
  4 17  1  0
  3 18  1  0
  6  2  1  0
 11  7  1  0
 15 10  1  0
  1 19  1  0
  1 20  1  0
  2 21  1  0
  3 22  1  0
  4 23  1  0
  5 24  1  0
  8 25  1  0
 13 26  1  0
 16 27  1  0
 16 28  1  0
 17 29  1  0
 18 30  1  0
M  RAD  1   1   2
M  END
$$$$

     RDKit          3D

 30 32  0  0  0  0  0  0  0  0999 V2000
  -12.5545   14.0331  -21.7647 C   0  0  0  0  0  3  0  0  0  0  0  0
  -11.8661   14.0968  -23.1135 C   0  0  0  0  0  0  0  0  0  0  0  0
  -12.7733   14.6514  -24.1581 C   0  0  0  0  0  0  0  0  0  0  0  0
  -12.7837   13.5239  -25.1992 C   0  0  0  0  0  0  0  0  0  0  0  0
  -11.3986   12.9487  -24.8843 C   0  0  0  0  0  0  0  0  0  0  0  0
  -11.4561   12.8314  -23.5301 O   0  0  0  0  0  0  0  0  0  0  0  0
  -11.1045   11.7791  -25.6185 N   0  0  0  0  0  0  0  0  0  0  0  0
  -10.6780   11.8007  -26.9063 C   0  0  0  0  0  0  0  0  0  0  0  0
  -10.4839   10.5615  -27.3305 N   0  0  0  0  0  0  0  0  0  0  0  0
  -10.7740    9.7234  -26.3478 C   0  0  0  0  0  0  0  0  0  0  0  0
  -11.1669   10.4825  -25.2624 C   0  0  0  0  0  0  0  0  0  0  0  0
  -11.5215    9.9062  -24.1192 N   0  0  0  0  0  0  0  0  0  0  0  0
  -11.4853    8.5524  -24.0528 C   0  0  0  0  0  0  0  0  0  0  0  0
  -11.1045    7.7931  -25.1016 N   0  0  0  0  0  0  0  0  0  0  0  0
  -10.7381    8.3480  -26.2776 C   0  0  0  0  0  0  0  0  0  0  0  0
  -10.3329    7.6190  -27.4037 N   0  0  0  0  0  0  0  0  0  0  0  0
  -12.8678   14.0066  -26.4796 O   0  0  0  0  0  0  0  0  0  0  0  0
  -14.0373   14.9502  -23.7062 O   0  0  0  0  0  0  0  0  0  0  0  0
  -13.6678   14.1564  -21.8833 H   0  0  0  0  0  0  0  0  0  0  0  0
  -12.1885   14.8859  -21.1242 H   0  0  0  0  0  0  0  0  0  0  0  0
  -10.9441   14.7338  -23.0662 H   0  0  0  0  0  0  0  0  0  0  0  0
  -12.3269   15.5383  -24.6647 H   0  0  0  0  0  0  0  0  0  0  0  0
  -13.5876   12.8287  -24.9179 H   0  0  0  0  0  0  0  0  0  0  0  0
  -10.6862   13.7922  -25.1198 H   0  0  0  0  0  0  0  0  0  0  0  0
  -10.5130   12.6785  -27.5173 H   0  0  0  0  0  0  0  0  0  0  0  0
  -11.7707    8.0464  -23.1273 H   0  0  0  0  0  0  0  0  0  0  0  0
  -11.0085    7.3620  -28.1519 H   0  0  0  0  0  0  0  0  0  0  0  0
   -9.3456    7.3124  -27.5268 H   0  0  0  0  0  0  0  0  0  0  0  0
  -13.2454   13.2632  -27.0471 H   0  0  0  0  0  0  0  0  0  0  0  0
  -14.5060   15.5057  -24.3754 H   0  0  0  0  0  0  0  0  0  0  0  0
  1  2  1  0
  2  3  1  0
  3  4  1  0
  4  5  1  0
  5  6  1  0
  5  7  1  0
  7  8  1  0
  8  9  2  0
  9 10  1  0
 10 11  2  0
 11 12  1  0
 12 13  2  0
 13 14  1  0
 14 15  2  0
 15 16  1  0
  4 17  1  0
  3 18  1  0
  6  2  1  0
 11  7  1  0
 15 10  1  0
  1 19  1  0
  1 20  1  0
  2 21  1  0
  3 22  1  0
  4 23  1  0
  5 24  1  0
  8 25  1  0
 13 26  1  0
 16 27  1  0
 16 28  1  0
 17 29  1  0
 18 30  1  0
M  RAD  1   1   2
M  END
$$$$

     RDKit          3D

 30 32  0  0  0  0  0  0  0  0999 V2000
  -14.2024   14.6642  -23.8048 C   0  0  0  0  0  3  0  0  0  0  0  0
  -13.0451   14.6627  -24.7856 C   0  0  0  0  0  0  0  0  0  0  0  0
  -11.7087   14.6821  -24.0795 C   0  0  0  0  0  0  0  0  0  0  0  0
  -11.2063   13.2733  -24.3388 C   0  0  0  0  0  0  0  0  0  0  0  0
  -12.5022   12.5742  -24.6050 C   0  0  0  0  0  0  0  0  0  0  0  0
  -13.1070   13.4629  -25.4937 O   0  0  0  0  0  0  0  0  0  0  0  0
  -12.3280   11.2607  -25.1772 N   0  0  0  0  0  0  0  0  0  0  0  0
  -13.3711   10.5028  -25.5661 C   0  0  0  0  0  0  0  0  0  0  0  0
  -12.8786    9.3293  -26.0600 N   0  0  0  0  0  0  0  0  0  0  0  0
  -11.5358    9.3834  -25.9672 C   0  0  0  0  0  0  0  0  0  0  0  0
  -11.1939   10.6178  -25.4035 C   0  0  0  0  0  0  0  0  0  0  0  0
   -9.9107   10.9482  -25.1914 N   0  0  0  0  0  0  0  0  0  0  0  0
   -8.9577   10.0604  -25.5353 C   0  0  0  0  0  0  0  0  0  0  0  0
   -9.2733    8.8638  -26.0810 N   0  0  0  0  0  0  0  0  0  0  0  0
  -10.5536    8.5015  -26.3070 C   0  0  0  0  0  0  0  0  0  0  0  0
  -10.9157    7.2509  -26.8789 N   0  0  0  0  0  0  0  0  0  0  0  0
  -10.5115   12.7575  -23.2591 O   0  0  0  0  0  0  0  0  0  0  0  0
  -11.9253   14.8125  -22.7219 O   0  0  0  0  0  0  0  0  0  0  0  0
  -13.8827   14.4458  -22.7733 H   0  0  0  0  0  0  0  0  0  0  0  0
  -14.9839   13.9255  -24.0716 H   0  0  0  0  0  0  0  0  0  0  0  0
  -13.1050   15.5403  -25.4782 H   0  0  0  0  0  0  0  0  0  0  0  0
  -11.0275   15.4500  -24.4901 H   0  0  0  0  0  0  0  0  0  0  0  0
  -10.5335   13.2452  -25.2152 H   0  0  0  0  0  0  0  0  0  0  0  0
  -13.0963   12.5376  -23.6694 H   0  0  0  0  0  0  0  0  0  0  0  0
  -14.4122   10.7517  -25.5094 H   0  0  0  0  0  0  0  0  0  0  0  0
   -7.8954   10.2658  -25.3899 H   0  0  0  0  0  0  0  0  0  0  0  0
  -11.6061    6.6339  -26.4390 H   0  0  0  0  0  0  0  0  0  0  0  0
  -10.4491    6.9795  -27.7722 H   0  0  0  0  0  0  0  0  0  0  0  0
  -10.8547   13.0828  -22.3885 H   0  0  0  0  0  0  0  0  0  0  0  0
  -11.1497   15.2562  -22.3039 H   0  0  0  0  0  0  0  0  0  0  0  0
  1  2  1  0
  2  3  1  0
  3  4  1  0
  4  5  1  0
  5  6  1  0
  5  7  1  0
  7  8  1  0
  8  9  2  0
  9 10  1  0
 10 11  2  0
 11 12  1  0
 12 13  2  0
 13 14  1  0
 14 15  2  0
 15 16  1  0
  4 17  1  0
  3 18  1  0
  6  2  1  0
 11  7  1  0
 15 10  1  0
  1 19  1  0
  1 20  1  0
  2 21  1  0
  3 22  1  0
  4 23  1  0
  5 24  1  0
  8 25  1  0
 13 26  1  0
 16 27  1  0
 16 28  1  0
 17 29  1  0
 18 30  1  0
M  RAD  1   1   2
M  END
$$$$

     RDKit          3D

 30 32  0  0  0  0  0  0  0  0999 V2000
  -13.5707   14.0505  -22.1261 C   0  0  0  0  0  3  0  0  0  0  0  0
  -12.4927   13.3604  -22.9301 C   0  0  0  0  0  0  0  0  0  0  0  0
  -11.7121   14.4288  -23.6523 C   0  0  0  0  0  0  0  0  0  0  0  0
  -11.2934   13.6770  -24.9106 C   0  0  0  0  0  0  0  0  0  0  0  0
  -12.4669   12.7429  -25.0827 C   0  0  0  0  0  0  0  0  0  0  0  0
  -12.9942   12.4872  -23.8516 O   0  0  0  0  0  0  0  0  0  0  0  0
  -12.0843   11.5700  -25.8305 N   0  0  0  0  0  0  0  0  0  0  0  0
  -12.3911   11.3511  -27.1402 C   0  0  0  0  0  0  0  0  0  0  0  0
  -11.8577   10.1577  -27.4553 N   0  0  0  0  0  0  0  0  0  0  0  0
  -11.2323    9.6284  -26.3922 C   0  0  0  0  0  0  0  0  0  0  0  0
  -11.3776   10.5343  -25.3500 C   0  0  0  0  0  0  0  0  0  0  0  0
  -10.8328   10.2411  -24.1477 N   0  0  0  0  0  0  0  0  0  0  0  0
  -10.1610    9.0807  -23.9804 C   0  0  0  0  0  0  0  0  0  0  0  0
  -10.0206    8.1993  -24.9976 N   0  0  0  0  0  0  0  0  0  0  0  0
  -10.5417    8.4383  -26.2159 C   0  0  0  0  0  0  0  0  0  0  0  0
  -10.4029    7.5289  -27.2841 N   0  0  0  0  0  0  0  0  0  0  0  0
  -11.1970   14.5994  -25.9478 O   0  0  0  0  0  0  0  0  0  0  0  0
  -12.4980   15.5320  -23.9610 O   0  0  0  0  0  0  0  0  0  0  0  0
  -13.5851   15.1590  -22.3054 H   0  0  0  0  0  0  0  0  0  0  0  0
  -13.3994   13.8920  -21.0433 H   0  0  0  0  0  0  0  0  0  0  0  0
  -11.7615   12.8435  -22.2524 H   0  0  0  0  0  0  0  0  0  0  0  0
  -10.8510   14.7568  -23.0588 H   0  0  0  0  0  0  0  0  0  0  0  0
  -10.3693   13.1131  -24.7446 H   0  0  0  0  0  0  0  0  0  0  0  0
  -13.2404   13.3282  -25.6613 H   0  0  0  0  0  0  0  0  0  0  0  0
  -12.9590   12.0423  -27.7586 H   0  0  0  0  0  0  0  0  0  0  0  0
   -9.7331    8.8729  -22.9990 H   0  0  0  0  0  0  0  0  0  0  0  0
   -9.8057    7.7587  -28.0910 H   0  0  0  0  0  0  0  0  0  0  0  0
  -10.9018    6.6284  -27.2581 H   0  0  0  0  0  0  0  0  0  0  0  0
  -12.0929   14.5940  -26.4090 H   0  0  0  0  0  0  0  0  0  0  0  0
  -13.3388   15.2886  -24.4044 H   0  0  0  0  0  0  0  0  0  0  0  0
  1  2  1  0
  2  3  1  0
  3  4  1  0
  4  5  1  0
  5  6  1  0
  5  7  1  0
  7  8  1  0
  8  9  2  0
  9 10  1  0
 10 11  2  0
 11 12  1  0
 12 13  2  0
 13 14  1  0
 14 15  2  0
 15 16  1  0
  4 17  1  0
  3 18  1  0
  6  2  1  0
 11  7  1  0
 15 10  1  0
  1 19  1  0
  1 20  1  0
  2 21  1  0
  3 22  1  0
  4 23  1  0
  5 24  1  0
  8 25  1  0
 13 26  1  0
 16 27  1  0
 16 28  1  0
 17 29  1  0
 18 30  1  0
M  RAD  1   1   2
M  END
$$$$

     RDKit          3D

 30 32  0  0  0  0  0  0  0  0999 V2000
  -14.3559   14.9089  -24.6969 C   0  0  0  0  0  3  0  0  0  0  0  0
  -12.8373   14.7665  -24.8473 C   0  0  0  0  0  0  0  0  0  0  0  0
  -12.1728   14.5779  -23.5282 C   0  0  0  0  0  0  0  0  0  0  0  0
  -11.7009   13.1421  -23.5609 C   0  0  0  0  0  0  0  0  0  0  0  0
  -11.6480   12.8825  -25.0462 C   0  0  0  0  0  0  0  0  0  0  0  0
  -12.6053   13.6803  -25.6376 O   0  0  0  0  0  0  0  0  0  0  0  0
  -11.8937   11.5000  -25.3719 N   0  0  0  0  0  0  0  0  0  0  0  0
  -13.0829   10.8907  -25.5001 C   0  0  0  0  0  0  0  0  0  0  0  0
  -12.8668    9.6012  -25.8103 N   0  0  0  0  0  0  0  0  0  0  0  0
  -11.5414    9.3782  -25.8823 C   0  0  0  0  0  0  0  0  0  0  0  0
  -10.9331   10.5794  -25.6048 C   0  0  0  0  0  0  0  0  0  0  0  0
   -9.5903   10.6445  -25.6085 N   0  0  0  0  0  0  0  0  0  0  0  0
   -8.8495    9.5596  -25.8774 C   0  0  0  0  0  0  0  0  0  0  0  0
   -9.4289    8.4036  -26.1445 N   0  0  0  0  0  0  0  0  0  0  0  0
  -10.7553    8.2779  -26.1556 C   0  0  0  0  0  0  0  0  0  0  0  0
  -11.3505    7.0306  -26.4442 N   0  0  0  0  0  0  0  0  0  0  0  0
  -10.4203   12.9929  -23.0282 O   0  0  0  0  0  0  0  0  0  0  0  0
  -13.0942   14.7913  -22.5109 O   0  0  0  0  0  0  0  0  0  0  0  0
  -14.6895   14.0002  -24.1170 H   0  0  0  0  0  0  0  0  0  0  0  0
  -14.7600   14.7820  -25.7432 H   0  0  0  0  0  0  0  0  0  0  0  0
  -12.4429   15.7223  -25.2938 H   0  0  0  0  0  0  0  0  0  0  0  0
  -11.2772   15.2440  -23.4093 H   0  0  0  0  0  0  0  0  0  0  0  0
  -12.4154   12.4641  -23.0399 H   0  0  0  0  0  0  0  0  0  0  0  0
  -10.6586   13.2329  -25.4063 H   0  0  0  0  0  0  0  0  0  0  0  0
  -14.0714   11.3305  -25.3813 H   0  0  0  0  0  0  0  0  0  0  0  0
   -7.7730    9.6501  -25.8712 H   0  0  0  0  0  0  0  0  0  0  0  0
  -10.8835    6.1193  -26.1568 H   0  0  0  0  0  0  0  0  0  0  0  0
  -12.2546    6.9452  -26.9411 H   0  0  0  0  0  0  0  0  0  0  0  0
   -9.7923   13.4740  -23.6200 H   0  0  0  0  0  0  0  0  0  0  0  0
  -13.5408   15.6690  -22.7267 H   0  0  0  0  0  0  0  0  0  0  0  0
  1  2  1  0
  2  3  1  0
  3  4  1  0
  4  5  1  0
  5  6  1  0
  5  7  1  0
  7  8  1  0
  8  9  2  0
  9 10  1  0
 10 11  2  0
 11 12  1  0
 12 13  2  0
 13 14  1  0
 14 15  2  0
 15 16  1  0
  4 17  1  0
  3 18  1  0
  6  2  1  0
 11  7  1  0
 15 10  1  0
  1 19  1  0
  1 20  1  0
  2 21  1  0
  3 22  1  0
  4 23  1  0
  5 24  1  0
  8 25  1  0
 13 26  1  0
 16 27  1  0
 16 28  1  0
 17 29  1  0
 18 30  1  0
M  RAD  1   1   2
M  END
$$$$

     RDKit          3D

 30 32  0  0  0  0  0  0  0  0999 V2000
  -14.5291   14.2171  -23.6980 C   0  0  0  0  0  3  0  0  0  0  0  0
  -13.0895   13.9637  -23.2801 C   0  0  0  0  0  0  0  0  0  0  0  0
  -12.1441   14.7918  -24.1275 C   0  0  0  0  0  0  0  0  0  0  0  0
  -11.4997   13.7187  -25.0184 C   0  0  0  0  0  0  0  0  0  0  0  0
  -12.5948   12.6862  -24.9334 C   0  0  0  0  0  0  0  0  0  0  0  0
  -12.7781   12.6216  -23.5517 O   0  0  0  0  0  0  0  0  0  0  0  0
  -12.3182   11.4540  -25.5565 N   0  0  0  0  0  0  0  0  0  0  0  0
  -13.0990   10.8649  -26.4834 C   0  0  0  0  0  0  0  0  0  0  0  0
  -12.5889    9.7080  -26.8958 N   0  0  0  0  0  0  0  0  0  0  0  0
  -11.4472    9.5192  -26.2338 C   0  0  0  0  0  0  0  0  0  0  0  0
  -11.2812   10.6065  -25.4016 C   0  0  0  0  0  0  0  0  0  0  0  0
  -10.2004   10.6424  -24.6332 N   0  0  0  0  0  0  0  0  0  0  0  0
   -9.2960    9.6426  -24.6702 C   0  0  0  0  0  0  0  0  0  0  0  0
   -9.4558    8.5770  -25.4838 N   0  0  0  0  0  0  0  0  0  0  0  0
  -10.5320    8.4744  -26.2931 C   0  0  0  0  0  0  0  0  0  0  0  0
  -10.7369    7.3670  -27.1654 N   0  0  0  0  0  0  0  0  0  0  0  0
  -10.3042   13.3130  -24.4853 O   0  0  0  0  0  0  0  0  0  0  0  0
  -11.2320   15.4398  -23.3449 O   0  0  0  0  0  0  0  0  0  0  0  0
  -14.5850   14.8639  -24.6038 H   0  0  0  0  0  0  0  0  0  0  0  0
  -15.0618   13.2776  -23.9416 H   0  0  0  0  0  0  0  0  0  0  0  0
  -13.0110   14.1943  -22.2040 H   0  0  0  0  0  0  0  0  0  0  0  0
  -12.7504   15.4817  -24.7797 H   0  0  0  0  0  0  0  0  0  0  0  0
  -11.3970   14.0606  -26.0518 H   0  0  0  0  0  0  0  0  0  0  0  0
  -13.5101   13.1620  -25.3429 H   0  0  0  0  0  0  0  0  0  0  0  0
  -14.0489   11.2562  -26.8794 H   0  0  0  0  0  0  0  0  0  0  0  0
   -8.4052    9.6465  -24.0539 H   0  0  0  0  0  0  0  0  0  0  0  0
  -11.1778    7.5128  -28.0980 H   0  0  0  0  0  0  0  0  0  0  0  0
  -10.4296    6.4146  -26.8334 H   0  0  0  0  0  0  0  0  0  0  0  0
  -10.3876   13.1966  -23.5009 H   0  0  0  0  0  0  0  0  0  0  0  0
  -10.3016   15.2323  -23.6070 H   0  0  0  0  0  0  0  0  0  0  0  0
  1  2  1  0
  2  3  1  0
  3  4  1  0
  4  5  1  0
  5  6  1  0
  5  7  1  0
  7  8  1  0
  8  9  2  0
  9 10  1  0
 10 11  2  0
 11 12  1  0
 12 13  2  0
 13 14  1  0
 14 15  2  0
 15 16  1  0
  4 17  1  0
  3 18  1  0
  6  2  1  0
 11  7  1  0
 15 10  1  0
  1 19  1  0
  1 20  1  0
  2 21  1  0
  3 22  1  0
  4 23  1  0
  5 24  1  0
  8 25  1  0
 13 26  1  0
 16 27  1  0
 16 28  1  0
 17 29  1  0
 18 30  1  0
M  RAD  1   1   2
M  END
$$$$

     RDKit          3D

 30 32  0  0  0  0  0  0  0  0999 V2000
  -14.4582   15.0677  -24.0620 C   0  0  0  0  0  3  0  0  0  0  0  0
  -13.3747   14.1202  -24.4898 C   0  0  0  0  0  0  0  0  0  0  0  0
  -12.0085   14.5395  -23.9787 C   0  0  0  0  0  0  0  0  0  0  0  0
  -11.2527   13.2308  -24.2450 C   0  0  0  0  0  0  0  0  0  0  0  0
  -12.3392   12.2241  -23.9105 C   0  0  0  0  0  0  0  0  0  0  0  0
  -13.5357   12.8882  -23.9114 O   0  0  0  0  0  0  0  0  0  0  0  0
  -12.2815   11.1352  -24.8613 N   0  0  0  0  0  0  0  0  0  0  0  0
  -13.3123   10.6481  -25.5397 C   0  0  0  0  0  0  0  0  0  0  0  0
  -12.8226    9.6443  -26.3115 N   0  0  0  0  0  0  0  0  0  0  0  0
  -11.5049    9.5164  -26.1091 C   0  0  0  0  0  0  0  0  0  0  0  0
  -11.1615   10.4739  -25.1787 C   0  0  0  0  0  0  0  0  0  0  0  0
   -9.8700   10.5332  -24.8167 N   0  0  0  0  0  0  0  0  0  0  0  0
   -8.9158    9.7265  -25.3026 C   0  0  0  0  0  0  0  0  0  0  0  0
   -9.2703    8.7992  -26.2090 N   0  0  0  0  0  0  0  0  0  0  0  0
  -10.5407    8.6750  -26.6234 C   0  0  0  0  0  0  0  0  0  0  0  0
  -10.8540    7.6762  -27.5831 N   0  0  0  0  0  0  0  0  0  0  0  0
  -10.1425   13.1134  -23.4457 O   0  0  0  0  0  0  0  0  0  0  0  0
  -11.4818   15.5962  -24.6777 O   0  0  0  0  0  0  0  0  0  0  0  0
  -14.7179   14.9020  -22.9997 H   0  0  0  0  0  0  0  0  0  0  0  0
  -14.1828   16.1129  -24.2854 H   0  0  0  0  0  0  0  0  0  0  0  0
  -13.3232   14.0383  -25.5825 H   0  0  0  0  0  0  0  0  0  0  0  0
  -12.0043   14.6846  -22.8834 H   0  0  0  0  0  0  0  0  0  0  0  0
  -11.0177   13.2231  -25.3301 H   0  0  0  0  0  0  0  0  0  0  0  0
  -12.0669   11.8121  -22.9038 H   0  0  0  0  0  0  0  0  0  0  0  0
  -14.3409   10.9243  -25.5415 H   0  0  0  0  0  0  0  0  0  0  0  0
   -7.8751    9.7633  -25.0207 H   0  0  0  0  0  0  0  0  0  0  0  0
  -10.9392    6.6931  -27.2434 H   0  0  0  0  0  0  0  0  0  0  0  0
  -11.0024    7.8633  -28.5951 H   0  0  0  0  0  0  0  0  0  0  0  0
   -9.3454   13.3488  -24.0156 H   0  0  0  0  0  0  0  0  0  0  0  0
  -10.7337   15.9751  -24.1637 H   0  0  0  0  0  0  0  0  0  0  0  0
  1  2  1  0
  2  3  1  0
  3  4  1  0
  4  5  1  0
  5  6  1  0
  5  7  1  0
  7  8  1  0
  8  9  2  0
  9 10  1  0
 10 11  2  0
 11 12  1  0
 12 13  2  0
 13 14  1  0
 14 15  2  0
 15 16  1  0
  4 17  1  0
  3 18  1  0
  6  2  1  0
 11  7  1  0
 15 10  1  0
  1 19  1  0
  1 20  1  0
  2 21  1  0
  3 22  1  0
  4 23  1  0
  5 24  1  0
  8 25  1  0
 13 26  1  0
 16 27  1  0
 16 28  1  0
 17 29  1  0
 18 30  1  0
M  RAD  1   1   2
M  END
$$$$

     RDKit          3D

 30 32  0  0  0  0  0  0  0  0999 V2000
  -11.9617   15.8940  -25.1321 C   0  0  0  0  0  3  0  0  0  0  0  0
  -11.8098   14.5045  -24.5860 C   0  0  0  0  0  0  0  0  0  0  0  0
  -12.7684   14.2239  -23.4491 C   0  0  0  0  0  0  0  0  0  0  0  0
  -12.8009   12.6891  -23.5344 C   0  0  0  0  0  0  0  0  0  0  0  0
  -12.8246   12.5674  -25.0640 C   0  0  0  0  0  0  0  0  0  0  0  0
  -11.9492   13.5145  -25.5168 O   0  0  0  0  0  0  0  0  0  0  0  0
  -12.5521   11.2297  -25.4996 N   0  0  0  0  0  0  0  0  0  0  0  0
  -13.4769   10.3410  -25.9022 C   0  0  0  0  0  0  0  0  0  0  0  0
  -12.8487    9.2027  -26.2324 N   0  0  0  0  0  0  0  0  0  0  0  0
  -11.5265    9.3986  -26.0292 C   0  0  0  0  0  0  0  0  0  0  0  0
  -11.3224   10.6807  -25.5640 C   0  0  0  0  0  0  0  0  0  0  0  0
  -10.0833   11.1392  -25.2784 N   0  0  0  0  0  0  0  0  0  0  0  0
   -9.0179   10.3459  -25.4442 C   0  0  0  0  0  0  0  0  0  0  0  0
   -9.2206    9.0975  -25.8975 N   0  0  0  0  0  0  0  0  0  0  0  0
  -10.4209    8.5916  -26.1957 C   0  0  0  0  0  0  0  0  0  0  0  0
  -10.6290    7.2698  -26.6750 N   0  0  0  0  0  0  0  0  0  0  0  0
  -11.5948   12.2527  -23.0247 O   0  0  0  0  0  0  0  0  0  0  0  0
  -12.3191   14.6651  -22.2308 O   0  0  0  0  0  0  0  0  0  0  0  0
  -12.1887   16.5730  -24.2583 H   0  0  0  0  0  0  0  0  0  0  0  0
  -10.9430   16.2202  -25.4716 H   0  0  0  0  0  0  0  0  0  0  0  0
  -10.7779   14.4076  -24.1405 H   0  0  0  0  0  0  0  0  0  0  0  0
  -13.8046   14.5674  -23.6860 H   0  0  0  0  0  0  0  0  0  0  0  0
  -13.6850   12.2665  -23.0671 H   0  0  0  0  0  0  0  0  0  0  0  0
  -13.8487   12.8707  -25.3722 H   0  0  0  0  0  0  0  0  0  0  0  0
  -14.5495   10.5575  -25.9370 H   0  0  0  0  0  0  0  0  0  0  0  0
   -8.0037   10.6919  -25.2205 H   0  0  0  0  0  0  0  0  0  0  0  0
  -11.2197    7.0773  -27.5100 H   0  0  0  0  0  0  0  0  0  0  0  0
  -10.1908    6.4727  -26.1942 H   0  0  0  0  0  0  0  0  0  0  0  0
  -11.5871   11.3447  -22.6852 H   0  0  0  0  0  0  0  0  0  0  0  0
  -12.9413   15.4072  -21.9446 H   0  0  0  0  0  0  0  0  0  0  0  0
  1  2  1  0
  2  3  1  0
  3  4  1  0
  4  5  1  0
  5  6  1  0
  5  7  1  0
  7  8  1  0
  8  9  2  0
  9 10  1  0
 10 11  2  0
 11 12  1  0
 12 13  2  0
 13 14  1  0
 14 15  2  0
 15 16  1  0
  4 17  1  0
  3 18  1  0
  6  2  1  0
 11  7  1  0
 15 10  1  0
  1 19  1  0
  1 20  1  0
  2 21  1  0
  3 22  1  0
  4 23  1  0
  5 24  1  0
  8 25  1  0
 13 26  1  0
 16 27  1  0
 16 28  1  0
 17 29  1  0
 18 30  1  0
M  RAD  1   1   2
M  END
$$$$

     RDKit          3D

 30 32  0  0  0  0  0  0  0  0999 V2000
  -11.7106   15.6105  -25.4102 C   0  0  0  0  0  3  0  0  0  0  0  0
  -12.8480   14.7985  -24.8263 C   0  0  0  0  0  0  0  0  0  0  0  0
  -12.5689   14.4530  -23.3683 C   0  0  0  0  0  0  0  0  0  0  0  0
  -12.2401   13.0021  -23.4337 C   0  0  0  0  0  0  0  0  0  0  0  0
  -11.8594   12.8312  -24.8982 C   0  0  0  0  0  0  0  0  0  0  0  0
  -12.8725   13.5837  -25.5062 O   0  0  0  0  0  0  0  0  0  0  0  0
  -11.9725   11.4651  -25.3127 N   0  0  0  0  0  0  0  0  0  0  0  0
  -13.0995   10.7888  -25.5293 C   0  0  0  0  0  0  0  0  0  0  0  0
  -12.8309    9.5178  -25.9111 N   0  0  0  0  0  0  0  0  0  0  0  0
  -11.5128    9.3620  -25.9443 C   0  0  0  0  0  0  0  0  0  0  0  0
  -10.9649   10.5846  -25.5686 C   0  0  0  0  0  0  0  0  0  0  0  0
   -9.6395   10.7426  -25.5068 N   0  0  0  0  0  0  0  0  0  0  0  0
   -8.8158    9.7234  -25.8065 C   0  0  0  0  0  0  0  0  0  0  0  0
   -9.3529    8.5455  -26.1686 N   0  0  0  0  0  0  0  0  0  0  0  0
  -10.6642    8.3086  -26.2541 C   0  0  0  0  0  0  0  0  0  0  0  0
  -11.2370    7.0721  -26.6343 N   0  0  0  0  0  0  0  0  0  0  0  0
  -11.2223   12.6109  -22.5828 O   0  0  0  0  0  0  0  0  0  0  0  0
  -13.7152   14.6077  -22.5939 O   0  0  0  0  0  0  0  0  0  0  0  0
  -11.4281   16.4310  -24.7213 H   0  0  0  0  0  0  0  0  0  0  0  0
  -12.0572   15.9889  -26.4002 H   0  0  0  0  0  0  0  0  0  0  0  0
  -13.8236   15.3157  -24.9397 H   0  0  0  0  0  0  0  0  0  0  0  0
  -11.7459   15.0953  -23.0439 H   0  0  0  0  0  0  0  0  0  0  0  0
  -13.1261   12.3905  -23.2624 H   0  0  0  0  0  0  0  0  0  0  0  0
  -10.8662   13.2750  -25.1039 H   0  0  0  0  0  0  0  0  0  0  0  0
  -14.0919   11.2411  -25.4029 H   0  0  0  0  0  0  0  0  0  0  0  0
   -7.7292    9.8227  -25.7650 H   0  0  0  0  0  0  0  0  0  0  0  0
  -11.7751    7.0121  -27.5377 H   0  0  0  0  0  0  0  0  0  0  0  0
  -11.1337    6.2083  -26.0272 H   0  0  0  0  0  0  0  0  0  0  0  0
  -10.3282   12.8379  -22.9338 H   0  0  0  0  0  0  0  0  0  0  0  0
  -14.5329   14.3721  -23.0884 H   0  0  0  0  0  0  0  0  0  0  0  0
  1  2  1  0
  2  3  1  0
  3  4  1  0
  4  5  1  0
  5  6  1  0
  5  7  1  0
  7  8  1  0
  8  9  2  0
  9 10  1  0
 10 11  2  0
 11 12  1  0
 12 13  2  0
 13 14  1  0
 14 15  2  0
 15 16  1  0
  4 17  1  0
  3 18  1  0
  6  2  1  0
 11  7  1  0
 15 10  1  0
  1 19  1  0
  1 20  1  0
  2 21  1  0
  3 22  1  0
  4 23  1  0
  5 24  1  0
  8 25  1  0
 13 26  1  0
 16 27  1  0
 16 28  1  0
 17 29  1  0
 18 30  1  0
M  RAD  1   1   2
M  END
$$$$

     RDKit          3D

 30 32  0  0  0  0  0  0  0  0999 V2000
  -12.0455   14.2351  -21.8089 C   0  0  0  0  0  3  0  0  0  0  0  0
  -12.7247   13.7921  -23.0774 C   0  0  0  0  0  0  0  0  0  0  0  0
  -12.5675   14.8109  -24.1711 C   0  0  0  0  0  0  0  0  0  0  0  0
  -12.0179   13.9571  -25.3194 C   0  0  0  0  0  0  0  0  0  0  0  0
  -12.5824   12.5974  -24.8849 C   0  0  0  0  0  0  0  0  0  0  0  0
  -12.1943   12.5905  -23.5628 O   0  0  0  0  0  0  0  0  0  0  0  0
  -12.0478   11.5279  -25.6596 N   0  0  0  0  0  0  0  0  0  0  0  0
  -12.0931   11.5068  -27.0136 C   0  0  0  0  0  0  0  0  0  0  0  0
  -11.5230   10.3958  -27.4645 N   0  0  0  0  0  0  0  0  0  0  0  0
  -11.1030    9.6872  -26.3966 C   0  0  0  0  0  0  0  0  0  0  0  0
  -11.4411   10.4136  -25.2709 C   0  0  0  0  0  0  0  0  0  0  0  0
  -11.1237    9.9079  -24.0857 N   0  0  0  0  0  0  0  0  0  0  0  0
  -10.4839    8.7093  -23.9757 C   0  0  0  0  0  0  0  0  0  0  0  0
  -10.1531    7.9988  -25.0723 N   0  0  0  0  0  0  0  0  0  0  0  0
  -10.4460    8.4551  -26.3005 C   0  0  0  0  0  0  0  0  0  0  0  0
  -10.1185    7.7432  -27.4953 N   0  0  0  0  0  0  0  0  0  0  0  0
  -10.6511   13.9374  -25.1785 O   0  0  0  0  0  0  0  0  0  0  0  0
  -13.8103   15.3420  -24.5185 O   0  0  0  0  0  0  0  0  0  0  0  0
  -12.4936   13.7213  -20.9285 H   0  0  0  0  0  0  0  0  0  0  0  0
  -12.2167   15.3297  -21.6822 H   0  0  0  0  0  0  0  0  0  0  0  0
  -13.8131   13.5924  -22.8961 H   0  0  0  0  0  0  0  0  0  0  0  0
  -11.8288   15.6042  -23.9269 H   0  0  0  0  0  0  0  0  0  0  0  0
  -12.3865   14.2685  -26.2900 H   0  0  0  0  0  0  0  0  0  0  0  0
  -13.6971   12.6602  -24.9112 H   0  0  0  0  0  0  0  0  0  0  0  0
  -12.5249   12.2695  -27.6748 H   0  0  0  0  0  0  0  0  0  0  0  0
  -10.2616    8.3681  -22.9810 H   0  0  0  0  0  0  0  0  0  0  0  0
   -9.2203    7.1970  -27.5340 H   0  0  0  0  0  0  0  0  0  0  0  0
  -10.7724    7.7699  -28.3210 H   0  0  0  0  0  0  0  0  0  0  0  0
  -10.3305   14.3795  -24.3307 H   0  0  0  0  0  0  0  0  0  0  0  0
  -14.0566   15.0099  -25.4389 H   0  0  0  0  0  0  0  0  0  0  0  0
  1  2  1  0
  2  3  1  0
  3  4  1  0
  4  5  1  0
  5  6  1  0
  5  7  1  0
  7  8  1  0
  8  9  2  0
  9 10  1  0
 10 11  2  0
 11 12  1  0
 12 13  2  0
 13 14  1  0
 14 15  2  0
 15 16  1  0
  4 17  1  0
  3 18  1  0
  6  2  1  0
 11  7  1  0
 15 10  1  0
  1 19  1  0
  1 20  1  0
  2 21  1  0
  3 22  1  0
  4 23  1  0
  5 24  1  0
  8 25  1  0
 13 26  1  0
 16 27  1  0
 16 28  1  0
 17 29  1  0
 18 30  1  0
M  RAD  1   1   2
M  END
$$$$

     RDKit          3D

 30 32  0  0  0  0  0  0  0  0999 V2000
  -13.4785   13.7125  -22.0137 C   0  0  0  0  0  3  0  0  0  0  0  0
  -12.2721   13.6932  -22.9391 C   0  0  0  0  0  0  0  0  0  0  0  0
  -12.3626   14.7367  -24.0187 C   0  0  0  0  0  0  0  0  0  0  0  0
  -11.9506   13.9134  -25.2465 C   0  0  0  0  0  0  0  0  0  0  0  0
  -12.5673   12.5810  -24.8572 C   0  0  0  0  0  0  0  0  0  0  0  0
  -12.2174   12.4622  -23.5380 O   0  0  0  0  0  0  0  0  0  0  0  0
  -12.0325   11.5015  -25.6556 N   0  0  0  0  0  0  0  0  0  0  0  0
  -12.0994   11.4736  -26.9986 C   0  0  0  0  0  0  0  0  0  0  0  0
  -11.5190   10.3489  -27.4503 N   0  0  0  0  0  0  0  0  0  0  0  0
  -11.0827    9.6617  -26.3892 C   0  0  0  0  0  0  0  0  0  0  0  0
  -11.4037   10.3829  -25.2618 C   0  0  0  0  0  0  0  0  0  0  0  0
  -11.0907    9.9435  -24.0263 N   0  0  0  0  0  0  0  0  0  0  0  0
  -10.4478    8.7657  -23.9246 C   0  0  0  0  0  0  0  0  0  0  0  0
  -10.1219    8.0387  -25.0239 N   0  0  0  0  0  0  0  0  0  0  0  0
  -10.4150    8.4406  -26.2658 C   0  0  0  0  0  0  0  0  0  0  0  0
  -10.0981    7.7219  -27.4393 N   0  0  0  0  0  0  0  0  0  0  0  0
  -12.4832   14.4383  -26.3963 O   0  0  0  0  0  0  0  0  0  0  0  0
  -11.4846   15.7914  -23.8111 O   0  0  0  0  0  0  0  0  0  0  0  0
  -13.6640   14.7213  -21.6036 H   0  0  0  0  0  0  0  0  0  0  0  0
  -14.3640   13.2657  -22.5085 H   0  0  0  0  0  0  0  0  0  0  0  0
  -11.3615   13.8931  -22.3022 H   0  0  0  0  0  0  0  0  0  0  0  0
  -13.4045   15.0493  -24.1740 H   0  0  0  0  0  0  0  0  0  0  0  0
  -10.8490   13.7926  -25.2899 H   0  0  0  0  0  0  0  0  0  0  0  0
  -13.6671   12.6905  -25.0260 H   0  0  0  0  0  0  0  0  0  0  0  0
  -12.5526   12.2393  -27.6418 H   0  0  0  0  0  0  0  0  0  0  0  0
  -10.1624    8.3480  -22.9488 H   0  0  0  0  0  0  0  0  0  0  0  0
   -9.3612    8.0472  -28.0856 H   0  0  0  0  0  0  0  0  0  0  0  0
  -10.6132    6.8538  -27.6559 H   0  0  0  0  0  0  0  0  0  0  0  0
  -13.2287   15.0584  -26.2275 H   0  0  0  0  0  0  0  0  0  0  0  0
  -11.7083   16.5064  -24.4590 H   0  0  0  0  0  0  0  0  0  0  0  0
  1  2  1  0
  2  3  1  0
  3  4  1  0
  4  5  1  0
  5  6  1  0
  5  7  1  0
  7  8  1  0
  8  9  2  0
  9 10  1  0
 10 11  2  0
 11 12  1  0
 12 13  2  0
 13 14  1  0
 14 15  2  0
 15 16  1  0
  4 17  1  0
  3 18  1  0
  6  2  1  0
 11  7  1  0
 15 10  1  0
  1 19  1  0
  1 20  1  0
  2 21  1  0
  3 22  1  0
  4 23  1  0
  5 24  1  0
  8 25  1  0
 13 26  1  0
 16 27  1  0
 16 28  1  0
 17 29  1  0
 18 30  1  0
M  RAD  1   1   2
M  END
$$$$

     RDKit          3D

 30 32  0  0  0  0  0  0  0  0999 V2000
  -14.3629   15.0796  -23.4305 C   0  0  0  0  0  3  0  0  0  0  0  0
  -13.3219   14.0110  -23.3175 C   0  0  0  0  0  0  0  0  0  0  0  0
  -11.9205   14.5426  -23.5065 C   0  0  0  0  0  0  0  0  0  0  0  0
  -11.2306   13.3803  -24.2171 C   0  0  0  0  0  0  0  0  0  0  0  0
  -12.2869   12.3112  -24.1326 C   0  0  0  0  0  0  0  0  0  0  0  0
  -13.4525   13.0228  -24.3099 O   0  0  0  0  0  0  0  0  0  0  0  0
  -12.1299   11.2845  -25.1091 N   0  0  0  0  0  0  0  0  0  0  0  0
  -12.9271   11.0296  -26.1636 C   0  0  0  0  0  0  0  0  0  0  0  0
  -12.4403    9.9651  -26.8612 N   0  0  0  0  0  0  0  0  0  0  0  0
  -11.3400    9.5378  -26.2623 C   0  0  0  0  0  0  0  0  0  0  0  0
  -11.1467   10.3655  -25.1645 C   0  0  0  0  0  0  0  0  0  0  0  0
  -10.0750   10.1055  -24.4093 N   0  0  0  0  0  0  0  0  0  0  0  0
   -9.2142    9.1076  -24.6705 C   0  0  0  0  0  0  0  0  0  0  0  0
   -9.4337    8.3254  -25.7438 N   0  0  0  0  0  0  0  0  0  0  0  0
  -10.4809    8.5051  -26.5633 C   0  0  0  0  0  0  0  0  0  0  0  0
  -10.6218    7.6264  -27.6664 N   0  0  0  0  0  0  0  0  0  0  0  0
  -10.8731   13.6982  -25.5037 O   0  0  0  0  0  0  0  0  0  0  0  0
  -11.8688   15.7099  -24.2243 O   0  0  0  0  0  0  0  0  0  0  0  0
  -15.0971   15.0824  -22.6004 H   0  0  0  0  0  0  0  0  0  0  0  0
  -14.9125   15.0859  -24.3730 H   0  0  0  0  0  0  0  0  0  0  0  0
  -13.4424   13.4871  -22.3405 H   0  0  0  0  0  0  0  0  0  0  0  0
  -11.4671   14.6125  -22.4983 H   0  0  0  0  0  0  0  0  0  0  0  0
  -10.3428   13.0247  -23.6555 H   0  0  0  0  0  0  0  0  0  0  0  0
  -12.2884   11.9341  -23.0848 H   0  0  0  0  0  0  0  0  0  0  0  0
  -13.8282   11.5859  -26.4271 H   0  0  0  0  0  0  0  0  0  0  0  0
   -8.3413    8.9285  -24.0195 H   0  0  0  0  0  0  0  0  0  0  0  0
  -11.3846    6.8870  -27.6872 H   0  0  0  0  0  0  0  0  0  0  0  0
  -10.0097    7.6417  -28.5059 H   0  0  0  0  0  0  0  0  0  0  0  0
  -11.5713   14.1741  -25.9954 H   0  0  0  0  0  0  0  0  0  0  0  0
  -12.7945   15.9739  -24.4548 H   0  0  0  0  0  0  0  0  0  0  0  0
  1  2  1  0
  2  3  1  0
  3  4  1  0
  4  5  1  0
  5  6  1  0
  5  7  1  0
  7  8  1  0
  8  9  2  0
  9 10  1  0
 10 11  2  0
 11 12  1  0
 12 13  2  0
 13 14  1  0
 14 15  2  0
 15 16  1  0
  4 17  1  0
  3 18  1  0
  6  2  1  0
 11  7  1  0
 15 10  1  0
  1 19  1  0
  1 20  1  0
  2 21  1  0
  3 22  1  0
  4 23  1  0
  5 24  1  0
  8 25  1  0
 13 26  1  0
 16 27  1  0
 16 28  1  0
 17 29  1  0
 18 30  1  0
M  RAD  1   1   2
M  END
$$$$

     RDKit          3D

 30 32  0  0  0  0  0  0  0  0999 V2000
  -11.8752   14.5459  -22.3860 C   0  0  0  0  0  3  0  0  0  0  0  0
  -12.7061   13.4662  -22.9971 C   0  0  0  0  0  0  0  0  0  0  0  0
  -13.4211   13.9651  -24.2356 C   0  0  0  0  0  0  0  0  0  0  0  0
  -12.3182   13.8843  -25.2613 C   0  0  0  0  0  0  0  0  0  0  0  0
  -11.4466   12.8005  -24.7180 C   0  0  0  0  0  0  0  0  0  0  0  0
  -11.9609   12.4095  -23.4961 O   0  0  0  0  0  0  0  0  0  0  0  0
  -11.2974   11.7087  -25.6524 N   0  0  0  0  0  0  0  0  0  0  0  0
  -11.3162   11.7577  -26.9912 C   0  0  0  0  0  0  0  0  0  0  0  0
  -11.1412   10.5134  -27.4686 N   0  0  0  0  0  0  0  0  0  0  0  0
  -11.0130    9.6866  -26.4274 C   0  0  0  0  0  0  0  0  0  0  0  0
  -11.1075   10.4136  -25.2578 C   0  0  0  0  0  0  0  0  0  0  0  0
  -11.0149    9.8446  -24.0334 N   0  0  0  0  0  0  0  0  0  0  0  0
  -10.8231    8.5163  -23.9695 C   0  0  0  0  0  0  0  0  0  0  0  0
  -10.7302    7.8029  -25.1059 N   0  0  0  0  0  0  0  0  0  0  0  0
  -10.8142    8.3111  -26.3389 C   0  0  0  0  0  0  0  0  0  0  0  0
  -10.7148    7.5495  -27.5228 N   0  0  0  0  0  0  0  0  0  0  0  0
  -11.6543   15.1231  -25.3457 O   0  0  0  0  0  0  0  0  0  0  0  0
  -13.7723   15.3091  -24.0483 O   0  0  0  0  0  0  0  0  0  0  0  0
  -12.0695   14.5315  -21.2772 H   0  0  0  0  0  0  0  0  0  0  0  0
  -12.2864   15.5249  -22.7370 H   0  0  0  0  0  0  0  0  0  0  0  0
  -13.4398   13.0457  -22.2773 H   0  0  0  0  0  0  0  0  0  0  0  0
  -14.3065   13.3590  -24.4960 H   0  0  0  0  0  0  0  0  0  0  0  0
  -12.6990   13.6803  -26.2808 H   0  0  0  0  0  0  0  0  0  0  0  0
  -10.4443   13.2729  -24.4945 H   0  0  0  0  0  0  0  0  0  0  0  0
  -11.4548   12.6859  -27.5581 H   0  0  0  0  0  0  0  0  0  0  0  0
  -10.7395    7.9947  -22.9996 H   0  0  0  0  0  0  0  0  0  0  0  0
  -10.0559    7.7841  -28.3054 H   0  0  0  0  0  0  0  0  0  0  0  0
  -11.3140    6.7118  -27.6459 H   0  0  0  0  0  0  0  0  0  0  0  0
  -10.6977   15.0104  -25.1252 H   0  0  0  0  0  0  0  0  0  0  0  0
  -13.5121   15.7890  -24.8573 H   0  0  0  0  0  0  0  0  0  0  0  0
  1  2  1  0
  2  3  1  0
  3  4  1  0
  4  5  1  0
  5  6  1  0
  5  7  1  0
  7  8  1  0
  8  9  2  0
  9 10  1  0
 10 11  2  0
 11 12  1  0
 12 13  2  0
 13 14  1  0
 14 15  2  0
 15 16  1  0
  4 17  1  0
  3 18  1  0
  6  2  1  0
 11  7  1  0
 15 10  1  0
  1 19  1  0
  1 20  1  0
  2 21  1  0
  3 22  1  0
  4 23  1  0
  5 24  1  0
  8 25  1  0
 13 26  1  0
 16 27  1  0
 16 28  1  0
 17 29  1  0
 18 30  1  0
M  RAD  1   1   2
M  END
$$$$

     RDKit          3D

 30 32  0  0  0  0  0  0  0  0999 V2000
  -11.9098   14.2693  -21.8624 C   0  0  0  0  0  3  0  0  0  0  0  0
  -12.6883   13.6087  -22.9794 C   0  0  0  0  0  0  0  0  0  0  0  0
  -12.8916   14.5712  -24.1145 C   0  0  0  0  0  0  0  0  0  0  0  0
  -12.5284   13.6902  -25.3191 C   0  0  0  0  0  0  0  0  0  0  0  0
  -11.4390   12.8517  -24.6485 C   0  0  0  0  0  0  0  0  0  0  0  0
  -12.0630   12.4843  -23.4805 O   0  0  0  0  0  0  0  0  0  0  0  0
  -11.1350   11.7396  -25.5087 N   0  0  0  0  0  0  0  0  0  0  0  0
  -10.7675   11.8910  -26.7933 C   0  0  0  0  0  0  0  0  0  0  0  0
  -10.5571   10.6688  -27.3145 N   0  0  0  0  0  0  0  0  0  0  0  0
  -10.7989    9.7720  -26.3387 C   0  0  0  0  0  0  0  0  0  0  0  0
  -11.1630   10.4340  -25.1991 C   0  0  0  0  0  0  0  0  0  0  0  0
  -11.4643    9.8048  -24.0632 N   0  0  0  0  0  0  0  0  0  0  0  0
  -11.3952    8.4588  -24.0802 C   0  0  0  0  0  0  0  0  0  0  0  0
  -11.0442    7.7516  -25.1676 N   0  0  0  0  0  0  0  0  0  0  0  0
  -10.7381    8.3885  -26.3210 C   0  0  0  0  0  0  0  0  0  0  0  0
  -10.3627    7.7053  -27.4961 N   0  0  0  0  0  0  0  0  0  0  0  0
  -12.0250   14.4350  -26.3635 O   0  0  0  0  0  0  0  0  0  0  0  0
  -14.1560   15.0830  -24.2055 O   0  0  0  0  0  0  0  0  0  0  0  0
  -11.7848   15.3598  -22.0343 H   0  0  0  0  0  0  0  0  0  0  0  0
  -12.4142   14.1682  -20.8824 H   0  0  0  0  0  0  0  0  0  0  0  0
  -13.6956   13.3519  -22.5806 H   0  0  0  0  0  0  0  0  0  0  0  0
  -12.0871   15.3580  -24.0888 H   0  0  0  0  0  0  0  0  0  0  0  0
  -13.3758   13.0345  -25.5982 H   0  0  0  0  0  0  0  0  0  0  0  0
  -10.5852   13.5105  -24.4629 H   0  0  0  0  0  0  0  0  0  0  0  0
  -10.6459   12.8112  -27.3606 H   0  0  0  0  0  0  0  0  0  0  0  0
  -11.6279    7.8814  -23.1881 H   0  0  0  0  0  0  0  0  0  0  0  0
   -9.4683    7.9304  -27.9527 H   0  0  0  0  0  0  0  0  0  0  0  0
  -10.9830    6.9864  -27.8911 H   0  0  0  0  0  0  0  0  0  0  0  0
  -12.7929   14.8169  -26.8515 H   0  0  0  0  0  0  0  0  0  0  0  0
  -14.0722   15.9985  -24.6228 H   0  0  0  0  0  0  0  0  0  0  0  0
  1  2  1  0
  2  3  1  0
  3  4  1  0
  4  5  1  0
  5  6  1  0
  5  7  1  0
  7  8  1  0
  8  9  2  0
  9 10  1  0
 10 11  2  0
 11 12  1  0
 12 13  2  0
 13 14  1  0
 14 15  2  0
 15 16  1  0
  4 17  1  0
  3 18  1  0
  6  2  1  0
 11  7  1  0
 15 10  1  0
  1 19  1  0
  1 20  1  0
  2 21  1  0
  3 22  1  0
  4 23  1  0
  5 24  1  0
  8 25  1  0
 13 26  1  0
 16 27  1  0
 16 28  1  0
 17 29  1  0
 18 30  1  0
M  RAD  1   1   2
M  END
$$$$

     RDKit          3D

 30 32  0  0  0  0  0  0  0  0999 V2000
  -12.9348   15.5779  -25.2168 C   0  0  0  0  0  3  0  0  0  0  0  0
  -13.3362   14.5432  -24.1979 C   0  0  0  0  0  0  0  0  0  0  0  0
  -12.1338   14.2733  -23.3245 C   0  0  0  0  0  0  0  0  0  0  0  0
  -11.2763   13.4233  -24.2390 C   0  0  0  0  0  0  0  0  0  0  0  0
  -12.2583   12.9940  -25.2869 C   0  0  0  0  0  0  0  0  0  0  0  0
  -13.5256   13.3239  -24.8221 O   0  0  0  0  0  0  0  0  0  0  0  0
  -12.1900   11.5722  -25.5349 N   0  0  0  0  0  0  0  0  0  0  0  0
  -13.2535   10.7621  -25.6812 C   0  0  0  0  0  0  0  0  0  0  0  0
  -12.8344    9.4874  -25.9020 N   0  0  0  0  0  0  0  0  0  0  0  0
  -11.5102    9.4735  -25.8985 C   0  0  0  0  0  0  0  0  0  0  0  0
  -11.1080   10.7827  -25.6681 C   0  0  0  0  0  0  0  0  0  0  0  0
   -9.7969   11.0478  -25.6160 N   0  0  0  0  0  0  0  0  0  0  0  0
   -8.8807   10.0798  -25.7810 C   0  0  0  0  0  0  0  0  0  0  0  0
   -9.2995    8.8223  -26.0025 N   0  0  0  0  0  0  0  0  0  0  0  0
  -10.5913    8.4570  -26.0721 C   0  0  0  0  0  0  0  0  0  0  0  0
  -10.9515    7.1027  -26.3102 N   0  0  0  0  0  0  0  0  0  0  0  0
  -10.7478   12.3899  -23.5010 O   0  0  0  0  0  0  0  0  0  0  0  0
  -12.4982   13.4950  -22.2012 O   0  0  0  0  0  0  0  0  0  0  0  0
  -13.1622   16.5983  -24.7894 H   0  0  0  0  0  0  0  0  0  0  0  0
  -13.4446   15.4342  -26.1918 H   0  0  0  0  0  0  0  0  0  0  0  0
  -14.1904   14.8593  -23.5731 H   0  0  0  0  0  0  0  0  0  0  0  0
  -11.6244   15.2074  -23.0083 H   0  0  0  0  0  0  0  0  0  0  0  0
  -10.4969   14.0840  -24.6784 H   0  0  0  0  0  0  0  0  0  0  0  0
  -12.0826   13.5928  -26.2040 H   0  0  0  0  0  0  0  0  0  0  0  0
  -14.2906   11.0850  -25.6293 H   0  0  0  0  0  0  0  0  0  0  0  0
   -7.8052   10.3243  -25.7336 H   0  0  0  0  0  0  0  0  0  0  0  0
  -11.2123    6.4391  -25.5781 H   0  0  0  0  0  0  0  0  0  0  0  0
  -10.9465    6.7730  -27.3009 H   0  0  0  0  0  0  0  0  0  0  0  0
   -9.9339   12.7421  -23.0340 H   0  0  0  0  0  0  0  0  0  0  0  0
  -13.1871   13.9619  -21.6684 H   0  0  0  0  0  0  0  0  0  0  0  0
  1  2  1  0
  2  3  1  0
  3  4  1  0
  4  5  1  0
  5  6  1  0
  5  7  1  0
  7  8  1  0
  8  9  2  0
  9 10  1  0
 10 11  2  0
 11 12  1  0
 12 13  2  0
 13 14  1  0
 14 15  2  0
 15 16  1  0
  4 17  1  0
  3 18  1  0
  6  2  1  0
 11  7  1  0
 15 10  1  0
  1 19  1  0
  1 20  1  0
  2 21  1  0
  3 22  1  0
  4 23  1  0
  5 24  1  0
  8 25  1  0
 13 26  1  0
 16 27  1  0
 16 28  1  0
 17 29  1  0
 18 30  1  0
M  RAD  1   1   2
M  END
$$$$

     RDKit          3D

 30 32  0  0  0  0  0  0  0  0999 V2000
  -10.8312   15.3833  -24.5629 C   0  0  0  0  0  3  0  0  0  0  0  0
  -12.2739   14.9666  -24.6119 C   0  0  0  0  0  0  0  0  0  0  0  0
  -12.6693   14.3753  -23.2889 C   0  0  0  0  0  0  0  0  0  0  0  0
  -12.1145   12.9495  -23.4043 C   0  0  0  0  0  0  0  0  0  0  0  0
  -11.7465   12.8889  -24.8520 C   0  0  0  0  0  0  0  0  0  0  0  0
  -12.4835   13.9002  -25.4915 O   0  0  0  0  0  0  0  0  0  0  0  0
  -11.9205   11.6058  -25.4565 N   0  0  0  0  0  0  0  0  0  0  0  0
  -12.9834   11.0972  -26.1032 C   0  0  0  0  0  0  0  0  0  0  0  0
  -12.7121    9.8359  -26.5163 N   0  0  0  0  0  0  0  0  0  0  0  0
  -11.4588    9.5282  -26.1311 C   0  0  0  0  0  0  0  0  0  0  0  0
  -10.9695   10.6344  -25.4710 C   0  0  0  0  0  0  0  0  0  0  0  0
   -9.7100   10.5693  -24.9823 N   0  0  0  0  0  0  0  0  0  0  0  0
   -8.9363    9.4708  -25.1221 C   0  0  0  0  0  0  0  0  0  0  0  0
   -9.3873    8.3758  -25.7620 N   0  0  0  0  0  0  0  0  0  0  0  0
  -10.6503    8.4177  -26.2617 C   0  0  0  0  0  0  0  0  0  0  0  0
  -11.1453    7.2869  -26.9343 N   0  0  0  0  0  0  0  0  0  0  0  0
  -13.0654   12.0306  -23.0276 O   0  0  0  0  0  0  0  0  0  0  0  0
  -14.0692   14.2915  -23.2763 O   0  0  0  0  0  0  0  0  0  0  0  0
  -10.2263   14.8397  -23.8383 H   0  0  0  0  0  0  0  0  0  0  0  0
  -10.3782   15.5283  -25.5504 H   0  0  0  0  0  0  0  0  0  0  0  0
  -12.8758   15.8459  -24.8544 H   0  0  0  0  0  0  0  0  0  0  0  0
  -12.2641   14.8980  -22.4196 H   0  0  0  0  0  0  0  0  0  0  0  0
  -11.2032   12.8512  -22.7808 H   0  0  0  0  0  0  0  0  0  0  0  0
  -10.6739   13.1951  -24.9655 H   0  0  0  0  0  0  0  0  0  0  0  0
  -13.9282   11.6032  -26.2797 H   0  0  0  0  0  0  0  0  0  0  0  0
   -7.9318    9.4371  -24.7249 H   0  0  0  0  0  0  0  0  0  0  0  0
  -11.6031    6.5237  -26.4000 H   0  0  0  0  0  0  0  0  0  0  0  0
  -11.0684    7.1864  -27.9589 H   0  0  0  0  0  0  0  0  0  0  0  0
  -13.8793   12.4636  -22.6178 H   0  0  0  0  0  0  0  0  0  0  0  0
  -14.3076   13.8399  -24.1436 H   0  0  0  0  0  0  0  0  0  0  0  0
  1  2  1  0
  2  3  1  0
  3  4  1  0
  4  5  1  0
  5  6  1  0
  5  7  1  0
  7  8  1  0
  8  9  2  0
  9 10  1  0
 10 11  2  0
 11 12  1  0
 12 13  2  0
 13 14  1  0
 14 15  2  0
 15 16  1  0
  4 17  1  0
  3 18  1  0
  6  2  1  0
 11  7  1  0
 15 10  1  0
  1 19  1  0
  1 20  1  0
  2 21  1  0
  3 22  1  0
  4 23  1  0
  5 24  1  0
  8 25  1  0
 13 26  1  0
 16 27  1  0
 16 28  1  0
 17 29  1  0
 18 30  1  0
M  RAD  1   1   2
M  END
$$$$

     RDKit          3D

 30 32  0  0  0  0  0  0  0  0999 V2000
  -14.1401   14.2974  -22.5017 C   0  0  0  0  0  3  0  0  0  0  0  0
  -12.8030   13.9956  -23.1052 C   0  0  0  0  0  0  0  0  0  0  0  0
  -12.5723   14.7588  -24.4086 C   0  0  0  0  0  0  0  0  0  0  0  0
  -11.3852   13.9883  -24.9710 C   0  0  0  0  0  0  0  0  0  0  0  0
  -11.5366   12.6487  -24.2848 C   0  0  0  0  0  0  0  0  0  0  0  0
  -12.6923   12.6824  -23.5482 O   0  0  0  0  0  0  0  0  0  0  0  0
  -11.5485   11.5969  -25.3033 N   0  0  0  0  0  0  0  0  0  0  0  0
  -12.0900   11.6822  -26.5325 C   0  0  0  0  0  0  0  0  0  0  0  0
  -11.9087   10.5162  -27.1913 N   0  0  0  0  0  0  0  0  0  0  0  0
  -11.2497    9.6747  -26.3896 C   0  0  0  0  0  0  0  0  0  0  0  0
  -11.0261   10.3527  -25.2110 C   0  0  0  0  0  0  0  0  0  0  0  0
  -10.3735    9.7819  -24.1700 N   0  0  0  0  0  0  0  0  0  0  0  0
   -9.9377    8.5178  -24.3057 C   0  0  0  0  0  0  0  0  0  0  0  0
  -10.1495    7.8477  -25.4484 N   0  0  0  0  0  0  0  0  0  0  0  0
  -10.7890    8.3662  -26.5070 C   0  0  0  0  0  0  0  0  0  0  0  0
  -11.0035    7.6507  -27.6988 N   0  0  0  0  0  0  0  0  0  0  0  0
  -10.2396   14.6569  -24.4810 O   0  0  0  0  0  0  0  0  0  0  0  0
  -13.6818   14.5929  -25.1980 O   0  0  0  0  0  0  0  0  0  0  0  0
  -14.6340   13.4079  -22.0641 H   0  0  0  0  0  0  0  0  0  0  0  0
  -13.9692   15.0909  -21.7175 H   0  0  0  0  0  0  0  0  0  0  0  0
  -11.9595   14.1990  -22.4123 H   0  0  0  0  0  0  0  0  0  0  0  0
  -12.3143   15.8188  -24.2135 H   0  0  0  0  0  0  0  0  0  0  0  0
  -11.3867   13.9320  -26.0590 H   0  0  0  0  0  0  0  0  0  0  0  0
  -10.6699   12.4897  -23.5819 H   0  0  0  0  0  0  0  0  0  0  0  0
  -12.5964   12.5475  -26.9428 H   0  0  0  0  0  0  0  0  0  0  0  0
   -9.4116    8.0536  -23.4705 H   0  0  0  0  0  0  0  0  0  0  0  0
  -11.8149    7.7938  -28.3376 H   0  0  0  0  0  0  0  0  0  0  0  0
  -10.3234    6.9010  -28.0187 H   0  0  0  0  0  0  0  0  0  0  0  0
   -9.4281   14.1275  -24.6374 H   0  0  0  0  0  0  0  0  0  0  0  0
  -13.7230   15.1574  -25.9895 H   0  0  0  0  0  0  0  0  0  0  0  0
  1  2  1  0
  2  3  1  0
  3  4  1  0
  4  5  1  0
  5  6  1  0
  5  7  1  0
  7  8  1  0
  8  9  2  0
  9 10  1  0
 10 11  2  0
 11 12  1  0
 12 13  2  0
 13 14  1  0
 14 15  2  0
 15 16  1  0
  4 17  1  0
  3 18  1  0
  6  2  1  0
 11  7  1  0
 15 10  1  0
  1 19  1  0
  1 20  1  0
  2 21  1  0
  3 22  1  0
  4 23  1  0
  5 24  1  0
  8 25  1  0
 13 26  1  0
 16 27  1  0
 16 28  1  0
 17 29  1  0
 18 30  1  0
M  RAD  1   1   2
M  END
$$$$

     RDKit          3D

 30 32  0  0  0  0  0  0  0  0999 V2000
  -14.3830   13.3504  -23.4836 C   0  0  0  0  0  3  0  0  0  0  0  0
  -13.1097   13.9758  -23.9952 C   0  0  0  0  0  0  0  0  0  0  0  0
  -11.8886   13.4758  -23.2776 C   0  0  0  0  0  0  0  0  0  0  0  0
  -10.8515   13.6652  -24.3965 C   0  0  0  0  0  0  0  0  0  0  0  0
  -11.6676   13.3359  -25.5903 C   0  0  0  0  0  0  0  0  0  0  0  0
  -12.9329   13.8459  -25.3401 O   0  0  0  0  0  0  0  0  0  0  0  0
  -11.8093   11.9397  -25.8771 N   0  0  0  0  0  0  0  0  0  0  0  0
  -12.8549   11.4390  -26.5877 C   0  0  0  0  0  0  0  0  0  0  0  0
  -12.7186   10.1230  -26.6934 N   0  0  0  0  0  0  0  0  0  0  0  0
  -11.5995    9.7161  -26.0682 C   0  0  0  0  0  0  0  0  0  0  0  0
  -11.0435   10.8890  -25.5602 C   0  0  0  0  0  0  0  0  0  0  0  0
   -9.9110   10.8047  -24.8806 N   0  0  0  0  0  0  0  0  0  0  0  0
   -9.3189    9.6052  -24.6912 C   0  0  0  0  0  0  0  0  0  0  0  0
   -9.8540    8.4616  -25.1822 N   0  0  0  0  0  0  0  0  0  0  0  0
  -11.0085    8.4821  -25.8844 C   0  0  0  0  0  0  0  0  0  0  0  0
  -11.5894    7.2953  -26.4096 N   0  0  0  0  0  0  0  0  0  0  0  0
  -10.6120   15.0584  -24.4245 O   0  0  0  0  0  0  0  0  0  0  0  0
  -11.9743   12.1447  -22.9136 O   0  0  0  0  0  0  0  0  0  0  0  0
  -14.5628   13.8048  -22.4674 H   0  0  0  0  0  0  0  0  0  0  0  0
  -15.2128   13.7246  -24.1152 H   0  0  0  0  0  0  0  0  0  0  0  0
  -13.1736   15.0814  -23.7720 H   0  0  0  0  0  0  0  0  0  0  0  0
  -11.6314   14.1017  -22.4063 H   0  0  0  0  0  0  0  0  0  0  0  0
   -9.9517   13.0924  -24.2383 H   0  0  0  0  0  0  0  0  0  0  0  0
  -11.2012   13.8669  -26.4726 H   0  0  0  0  0  0  0  0  0  0  0  0
  -13.6785   12.0313  -27.0058 H   0  0  0  0  0  0  0  0  0  0  0  0
   -8.3933    9.4926  -24.1420 H   0  0  0  0  0  0  0  0  0  0  0  0
  -12.4815    6.9359  -26.0163 H   0  0  0  0  0  0  0  0  0  0  0  0
  -11.0833    6.8212  -27.1890 H   0  0  0  0  0  0  0  0  0  0  0  0
  -10.7211   15.4204  -25.3359 H   0  0  0  0  0  0  0  0  0  0  0  0
  -12.8995   11.8153  -22.8432 H   0  0  0  0  0  0  0  0  0  0  0  0
  1  2  1  0
  2  3  1  0
  3  4  1  0
  4  5  1  0
  5  6  1  0
  5  7  1  0
  7  8  1  0
  8  9  2  0
  9 10  1  0
 10 11  2  0
 11 12  1  0
 12 13  2  0
 13 14  1  0
 14 15  2  0
 15 16  1  0
  4 17  1  0
  3 18  1  0
  6  2  1  0
 11  7  1  0
 15 10  1  0
  1 19  1  0
  1 20  1  0
  2 21  1  0
  3 22  1  0
  4 23  1  0
  5 24  1  0
  8 25  1  0
 13 26  1  0
 16 27  1  0
 16 28  1  0
 17 29  1  0
 18 30  1  0
M  RAD  1   1   2
M  END
$$$$

     RDKit          3D

 30 32  0  0  0  0  0  0  0  0999 V2000
  -12.3276   15.6662  -25.2721 C   0  0  0  0  0  3  0  0  0  0  0  0
  -11.5729   14.6679  -24.4635 C   0  0  0  0  0  0  0  0  0  0  0  0
  -12.2852   14.2302  -23.2106 C   0  0  0  0  0  0  0  0  0  0  0  0
  -12.8014   12.8324  -23.5413 C   0  0  0  0  0  0  0  0  0  0  0  0
  -12.4935   12.7482  -25.0174 C   0  0  0  0  0  0  0  0  0  0  0  0
  -11.3532   13.5297  -25.2180 O   0  0  0  0  0  0  0  0  0  0  0  0
  -12.3347   11.4080  -25.4930 N   0  0  0  0  0  0  0  0  0  0  0  0
  -13.3393   10.6497  -25.9796 C   0  0  0  0  0  0  0  0  0  0  0  0
  -12.8372    9.4510  -26.3336 N   0  0  0  0  0  0  0  0  0  0  0  0
  -11.5157    9.4301  -26.0789 C   0  0  0  0  0  0  0  0  0  0  0  0
  -11.2032   10.6788  -25.5442 C   0  0  0  0  0  0  0  0  0  0  0  0
   -9.9150   10.9265  -25.1946 N   0  0  0  0  0  0  0  0  0  0  0  0
   -8.9612    9.9904  -25.3593 C   0  0  0  0  0  0  0  0  0  0  0  0
   -9.2729    8.7721  -25.8824 N   0  0  0  0  0  0  0  0  0  0  0  0
  -10.5362    8.4718  -26.2470 C   0  0  0  0  0  0  0  0  0  0  0  0
  -10.9010    7.2126  -26.7961 N   0  0  0  0  0  0  0  0  0  0  0  0
  -12.1876   11.8548  -22.7980 O   0  0  0  0  0  0  0  0  0  0  0  0
  -13.2893   15.0876  -22.8264 O   0  0  0  0  0  0  0  0  0  0  0  0
  -13.2666   15.3113  -25.6938 H   0  0  0  0  0  0  0  0  0  0  0  0
  -12.3366   16.6835  -24.8710 H   0  0  0  0  0  0  0  0  0  0  0  0
  -10.6185   15.1506  -24.1378 H   0  0  0  0  0  0  0  0  0  0  0  0
  -11.5688   14.1179  -22.3728 H   0  0  0  0  0  0  0  0  0  0  0  0
  -13.9023   12.8628  -23.3442 H   0  0  0  0  0  0  0  0  0  0  0  0
  -13.3359   13.2782  -25.5401 H   0  0  0  0  0  0  0  0  0  0  0  0
  -14.3994   10.9304  -26.0840 H   0  0  0  0  0  0  0  0  0  0  0  0
   -7.9235   10.1345  -25.0987 H   0  0  0  0  0  0  0  0  0  0  0  0
  -10.7446    6.3618  -26.2200 H   0  0  0  0  0  0  0  0  0  0  0  0
  -11.3124    7.2004  -27.7604 H   0  0  0  0  0  0  0  0  0  0  0  0
  -11.3082   12.1439  -22.5075 H   0  0  0  0  0  0  0  0  0  0  0  0
  -13.8929   15.3283  -23.5490 H   0  0  0  0  0  0  0  0  0  0  0  0
  1  2  1  0
  2  3  1  0
  3  4  1  0
  4  5  1  0
  5  6  1  0
  5  7  1  0
  7  8  1  0
  8  9  2  0
  9 10  1  0
 10 11  2  0
 11 12  1  0
 12 13  2  0
 13 14  1  0
 14 15  2  0
 15 16  1  0
  4 17  1  0
  3 18  1  0
  6  2  1  0
 11  7  1  0
 15 10  1  0
  1 19  1  0
  1 20  1  0
  2 21  1  0
  3 22  1  0
  4 23  1  0
  5 24  1  0
  8 25  1  0
 13 26  1  0
 16 27  1  0
 16 28  1  0
 17 29  1  0
 18 30  1  0
M  RAD  1   1   2
M  END
$$$$

     RDKit          3D

 30 32  0  0  0  0  0  0  0  0999 V2000
  -11.7605   14.0421  -22.0374 C   0  0  0  0  0  3  0  0  0  0  0  0
  -12.8726   13.7201  -23.0137 C   0  0  0  0  0  0  0  0  0  0  0  0
  -12.8627   14.7382  -24.1252 C   0  0  0  0  0  0  0  0  0  0  0  0
  -12.2466   13.9597  -25.2664 C   0  0  0  0  0  0  0  0  0  0  0  0
  -11.6492   12.7755  -24.5364 C   0  0  0  0  0  0  0  0  0  0  0  0
  -12.6544   12.4706  -23.6273 O   0  0  0  0  0  0  0  0  0  0  0  0
  -11.3701   11.7105  -25.4578 N   0  0  0  0  0  0  0  0  0  0  0  0
  -11.2562   11.8496  -26.7903 C   0  0  0  0  0  0  0  0  0  0  0  0
  -10.9924   10.6464  -27.3325 N   0  0  0  0  0  0  0  0  0  0  0  0
  -10.9301    9.7069  -26.3681 C   0  0  0  0  0  0  0  0  0  0  0  0
  -11.1720   10.4000  -25.1863 C   0  0  0  0  0  0  0  0  0  0  0  0
  -11.1737    9.7253  -24.0456 N   0  0  0  0  0  0  0  0  0  0  0  0
  -10.9457    8.3993  -24.0375 C   0  0  0  0  0  0  0  0  0  0  0  0
  -10.7071    7.7096  -25.1925 N   0  0  0  0  0  0  0  0  0  0  0  0
  -10.6949    8.3482  -26.3750 C   0  0  0  0  0  0  0  0  0  0  0  0
  -10.4475    7.6347  -27.5762 N   0  0  0  0  0  0  0  0  0  0  0  0
  -11.2320   14.6626  -25.8982 O   0  0  0  0  0  0  0  0  0  0  0  0
  -14.1592   15.1086  -24.3895 O   0  0  0  0  0  0  0  0  0  0  0  0
  -11.3602   13.0865  -21.6624 H   0  0  0  0  0  0  0  0  0  0  0  0
  -10.9461   14.6370  -22.4986 H   0  0  0  0  0  0  0  0  0  0  0  0
  -13.8150   13.7414  -22.4399 H   0  0  0  0  0  0  0  0  0  0  0  0
  -12.2300   15.6064  -23.8231 H   0  0  0  0  0  0  0  0  0  0  0  0
  -13.0077   13.5791  -25.9587 H   0  0  0  0  0  0  0  0  0  0  0  0
  -10.7584   13.0703  -23.9384 H   0  0  0  0  0  0  0  0  0  0  0  0
  -11.3674   12.8102  -27.3172 H   0  0  0  0  0  0  0  0  0  0  0  0
  -10.9358    7.7988  -23.1320 H   0  0  0  0  0  0  0  0  0  0  0  0
  -10.8914    6.7124  -27.7758 H   0  0  0  0  0  0  0  0  0  0  0  0
   -9.8035    8.0287  -28.2956 H   0  0  0  0  0  0  0  0  0  0  0  0
  -11.6181   15.1340  -26.6821 H   0  0  0  0  0  0  0  0  0  0  0  0
  -14.2450   15.7106  -25.1786 H   0  0  0  0  0  0  0  0  0  0  0  0
  1  2  1  0
  2  3  1  0
  3  4  1  0
  4  5  1  0
  5  6  1  0
  5  7  1  0
  7  8  1  0
  8  9  2  0
  9 10  1  0
 10 11  2  0
 11 12  1  0
 12 13  2  0
 13 14  1  0
 14 15  2  0
 15 16  1  0
  4 17  1  0
  3 18  1  0
  6  2  1  0
 11  7  1  0
 15 10  1  0
  1 19  1  0
  1 20  1  0
  2 21  1  0
  3 22  1  0
  4 23  1  0
  5 24  1  0
  8 25  1  0
 13 26  1  0
 16 27  1  0
 16 28  1  0
 17 29  1  0
 18 30  1  0
M  RAD  1   1   2
M  END
$$$$

     RDKit          3D

 30 32  0  0  0  0  0  0  0  0999 V2000
  -14.3062   15.2076  -23.8004 C   0  0  0  0  0  3  0  0  0  0  0  0
  -13.3098   14.4740  -24.6757 C   0  0  0  0  0  0  0  0  0  0  0  0
  -11.9117   14.7253  -24.1465 C   0  0  0  0  0  0  0  0  0  0  0  0
  -11.2346   13.4436  -24.6551 C   0  0  0  0  0  0  0  0  0  0  0  0
  -12.3737   12.4685  -24.3483 C   0  0  0  0  0  0  0  0  0  0  0  0
  -13.5428   13.1257  -24.6181 O   0  0  0  0  0  0  0  0  0  0  0  0
  -12.2405   11.2469  -25.0912 N   0  0  0  0  0  0  0  0  0  0  0  0
  -13.2691   10.6485  -25.7153 C   0  0  0  0  0  0  0  0  0  0  0  0
  -12.7867    9.5367  -26.3054 N   0  0  0  0  0  0  0  0  0  0  0  0
  -11.4746    9.4297  -26.0609 C   0  0  0  0  0  0  0  0  0  0  0  0
  -11.1279   10.5177  -25.2887 C   0  0  0  0  0  0  0  0  0  0  0  0
   -9.8358   10.6451  -24.9003 N   0  0  0  0  0  0  0  0  0  0  0  0
   -8.8997    9.7363  -25.2537 C   0  0  0  0  0  0  0  0  0  0  0  0
   -9.2738    8.6852  -26.0092 N   0  0  0  0  0  0  0  0  0  0  0  0
  -10.5292    8.4884  -26.4327 C   0  0  0  0  0  0  0  0  0  0  0  0
  -10.9112    7.3729  -27.2309 N   0  0  0  0  0  0  0  0  0  0  0  0
  -10.0878   13.1528  -23.9711 O   0  0  0  0  0  0  0  0  0  0  0  0
  -12.0120   14.7030  -22.7524 O   0  0  0  0  0  0  0  0  0  0  0  0
  -15.2849   15.1756  -24.3424 H   0  0  0  0  0  0  0  0  0  0  0  0
  -14.3844   14.6286  -22.8489 H   0  0  0  0  0  0  0  0  0  0  0  0
  -13.3944   14.8639  -25.7321 H   0  0  0  0  0  0  0  0  0  0  0  0
  -11.4446   15.6172  -24.5438 H   0  0  0  0  0  0  0  0  0  0  0  0
  -11.0724   13.5762  -25.7245 H   0  0  0  0  0  0  0  0  0  0  0  0
  -12.2493   12.2239  -23.2561 H   0  0  0  0  0  0  0  0  0  0  0  0
  -14.3139   10.9700  -25.7602 H   0  0  0  0  0  0  0  0  0  0  0  0
   -7.8639    9.8607  -24.9284 H   0  0  0  0  0  0  0  0  0  0  0  0
  -10.6910    7.3091  -28.2510 H   0  0  0  0  0  0  0  0  0  0  0  0
  -11.4308    6.5984  -26.7608 H   0  0  0  0  0  0  0  0  0  0  0  0
  -10.2575   12.9994  -23.0227 H   0  0  0  0  0  0  0  0  0  0  0  0
  -11.2042   15.0014  -22.2959 H   0  0  0  0  0  0  0  0  0  0  0  0
  1  2  1  0
  2  3  1  0
  3  4  1  0
  4  5  1  0
  5  6  1  0
  5  7  1  0
  7  8  1  0
  8  9  2  0
  9 10  1  0
 10 11  2  0
 11 12  1  0
 12 13  2  0
 13 14  1  0
 14 15  2  0
 15 16  1  0
  4 17  1  0
  3 18  1  0
  6  2  1  0
 11  7  1  0
 15 10  1  0
  1 19  1  0
  1 20  1  0
  2 21  1  0
  3 22  1  0
  4 23  1  0
  5 24  1  0
  8 25  1  0
 13 26  1  0
 16 27  1  0
 16 28  1  0
 17 29  1  0
 18 30  1  0
M  RAD  1   1   2
M  END
$$$$

     RDKit          3D

 30 32  0  0  0  0  0  0  0  0999 V2000
  -13.8182   15.4074  -24.1423 C   0  0  0  0  0  3  0  0  0  0  0  0
  -13.0240   14.2715  -24.8002 C   0  0  0  0  0  0  0  0  0  0  0  0
  -11.6855   14.2388  -24.1403 C   0  0  0  0  0  0  0  0  0  0  0  0
  -11.8045   13.0092  -23.2630 C   0  0  0  0  0  0  0  0  0  0  0  0
  -12.8230   12.2118  -23.9113 C   0  0  0  0  0  0  0  0  0  0  0  0
  -13.6386   13.0654  -24.6863 O   0  0  0  0  0  0  0  0  0  0  0  0
  -12.4723   11.1209  -24.7371 N   0  0  0  0  0  0  0  0  0  0  0  0
  -13.4343   10.2617  -25.1965 C   0  0  0  0  0  0  0  0  0  0  0  0
  -12.8557    9.3348  -25.9430 N   0  0  0  0  0  0  0  0  0  0  0  0
  -11.5498    9.5354  -26.0037 C   0  0  0  0  0  0  0  0  0  0  0  0
  -11.3223   10.6726  -25.2334 C   0  0  0  0  0  0  0  0  0  0  0  0
  -10.0816   11.1008  -25.1232 N   0  0  0  0  0  0  0  0  0  0  0  0
   -9.0055   10.5595  -25.6743 C   0  0  0  0  0  0  0  0  0  0  0  0
   -9.1923    9.4470  -26.4335 N   0  0  0  0  0  0  0  0  0  0  0  0
  -10.4433    8.9483  -26.5921 C   0  0  0  0  0  0  0  0  0  0  0  0
  -10.6362    7.8012  -27.3747 N   0  0  0  0  0  0  0  0  0  0  0  0
  -10.6279   12.4472  -22.9077 O   0  0  0  0  0  0  0  0  0  0  0  0
  -10.7118   14.1744  -25.0932 O   0  0  0  0  0  0  0  0  0  0  0  0
  -14.0081   15.1589  -23.0576 H   0  0  0  0  0  0  0  0  0  0  0  0
  -13.1298   16.2953  -24.2017 H   0  0  0  0  0  0  0  0  0  0  0  0
  -12.9723   14.5474  -25.8802 H   0  0  0  0  0  0  0  0  0  0  0  0
  -11.4854   15.1412  -23.5226 H   0  0  0  0  0  0  0  0  0  0  0  0
  -12.2337   13.4247  -22.2926 H   0  0  0  0  0  0  0  0  0  0  0  0
  -13.5388   11.8158  -23.1252 H   0  0  0  0  0  0  0  0  0  0  0  0
  -14.5062   10.2898  -25.0100 H   0  0  0  0  0  0  0  0  0  0  0  0
   -7.9972   10.9516  -25.5535 H   0  0  0  0  0  0  0  0  0  0  0  0
   -9.9472    7.0216  -27.4502 H   0  0  0  0  0  0  0  0  0  0  0  0
  -11.5141    7.7056  -27.9196 H   0  0  0  0  0  0  0  0  0  0  0  0
  -10.5303   12.1648  -21.9769 H   0  0  0  0  0  0  0  0  0  0  0  0
  -11.0483   14.4341  -26.0094 H   0  0  0  0  0  0  0  0  0  0  0  0
  1  2  1  0
  2  3  1  0
  3  4  1  0
  4  5  1  0
  5  6  1  0
  5  7  1  0
  7  8  1  0
  8  9  2  0
  9 10  1  0
 10 11  2  0
 11 12  1  0
 12 13  2  0
 13 14  1  0
 14 15  2  0
 15 16  1  0
  4 17  1  0
  3 18  1  0
  6  2  1  0
 11  7  1  0
 15 10  1  0
  1 19  1  0
  1 20  1  0
  2 21  1  0
  3 22  1  0
  4 23  1  0
  5 24  1  0
  8 25  1  0
 13 26  1  0
 16 27  1  0
 16 28  1  0
 17 29  1  0
 18 30  1  0
M  RAD  1   1   2
M  END
$$$$

     RDKit          3D

 30 32  0  0  0  0  0  0  0  0999 V2000
  -12.7987   14.0713  -21.8975 C   0  0  0  0  0  3  0  0  0  0  0  0
  -13.2050   13.7987  -23.3436 C   0  0  0  0  0  0  0  0  0  0  0  0
  -12.5033   14.7594  -24.2753 C   0  0  0  0  0  0  0  0  0  0  0  0
  -12.0239   13.8442  -25.3806 C   0  0  0  0  0  0  0  0  0  0  0  0
  -12.8797   12.6022  -25.1160 C   0  0  0  0  0  0  0  0  0  0  0  0
  -12.8008   12.5099  -23.7372 O   0  0  0  0  0  0  0  0  0  0  0  0
  -12.3522   11.4605  -25.7980 N   0  0  0  0  0  0  0  0  0  0  0  0
  -12.6908   11.1081  -27.0532 C   0  0  0  0  0  0  0  0  0  0  0  0
  -12.0190    9.9873  -27.4019 N   0  0  0  0  0  0  0  0  0  0  0  0
  -11.2409    9.6087  -26.3712 C   0  0  0  0  0  0  0  0  0  0  0  0
  -11.4595   10.5473  -25.3624 C   0  0  0  0  0  0  0  0  0  0  0  0
  -10.8105   10.4166  -24.2138 N   0  0  0  0  0  0  0  0  0  0  0  0
   -9.9582    9.3907  -24.0384 C   0  0  0  0  0  0  0  0  0  0  0  0
   -9.7363    8.4725  -25.0084 N   0  0  0  0  0  0  0  0  0  0  0  0
  -10.3665    8.5533  -26.1956 C   0  0  0  0  0  0  0  0  0  0  0  0
  -10.1619    7.6076  -27.2446 N   0  0  0  0  0  0  0  0  0  0  0  0
  -10.6753   13.5403  -25.2343 O   0  0  0  0  0  0  0  0  0  0  0  0
  -11.4446   15.3294  -23.5839 O   0  0  0  0  0  0  0  0  0  0  0  0
  -12.9813   13.1219  -21.3491 H   0  0  0  0  0  0  0  0  0  0  0  0
  -13.5249   14.8116  -21.5124 H   0  0  0  0  0  0  0  0  0  0  0  0
  -14.3064   13.8781  -23.4659 H   0  0  0  0  0  0  0  0  0  0  0  0
  -13.2337   15.5103  -24.6431 H   0  0  0  0  0  0  0  0  0  0  0  0
  -12.1944   14.2533  -26.3788 H   0  0  0  0  0  0  0  0  0  0  0  0
  -13.9213   12.8516  -25.4106 H   0  0  0  0  0  0  0  0  0  0  0  0
  -13.3893   11.6305  -27.6940 H   0  0  0  0  0  0  0  0  0  0  0  0
   -9.4292    9.2844  -23.1022 H   0  0  0  0  0  0  0  0  0  0  0  0
   -9.2261    7.2322  -27.4233 H   0  0  0  0  0  0  0  0  0  0  0  0
  -10.9465    7.2686  -27.8591 H   0  0  0  0  0  0  0  0  0  0  0  0
  -10.2988   13.3902  -26.1288 H   0  0  0  0  0  0  0  0  0  0  0  0
  -11.1280   14.6855  -22.9060 H   0  0  0  0  0  0  0  0  0  0  0  0
  1  2  1  0
  2  3  1  0
  3  4  1  0
  4  5  1  0
  5  6  1  0
  5  7  1  0
  7  8  1  0
  8  9  2  0
  9 10  1  0
 10 11  2  0
 11 12  1  0
 12 13  2  0
 13 14  1  0
 14 15  2  0
 15 16  1  0
  4 17  1  0
  3 18  1  0
  6  2  1  0
 11  7  1  0
 15 10  1  0
  1 19  1  0
  1 20  1  0
  2 21  1  0
  3 22  1  0
  4 23  1  0
  5 24  1  0
  8 25  1  0
 13 26  1  0
 16 27  1  0
 16 28  1  0
 17 29  1  0
 18 30  1  0
M  RAD  1   1   2
M  END
$$$$

     RDKit          3D

 30 32  0  0  0  0  0  0  0  0999 V2000
  -14.5020   13.5117  -23.7455 C   0  0  0  0  0  3  0  0  0  0  0  0
  -13.1282   13.7541  -23.1949 C   0  0  0  0  0  0  0  0  0  0  0  0
  -12.4013   14.7185  -24.0583 C   0  0  0  0  0  0  0  0  0  0  0  0
  -11.1286   14.0270  -24.3920 C   0  0  0  0  0  0  0  0  0  0  0  0
  -11.3635   12.6091  -23.9644 C   0  0  0  0  0  0  0  0  0  0  0  0
  -12.4400   12.5814  -23.1158 O   0  0  0  0  0  0  0  0  0  0  0  0
  -11.4810   11.6802  -25.0481 N   0  0  0  0  0  0  0  0  0  0  0  0
  -12.1014   11.8893  -26.2277 C   0  0  0  0  0  0  0  0  0  0  0  0
  -11.9866   10.7679  -26.9704 N   0  0  0  0  0  0  0  0  0  0  0  0
  -11.2979    9.8514  -26.2684 C   0  0  0  0  0  0  0  0  0  0  0  0
  -10.9734   10.4132  -25.0556 C   0  0  0  0  0  0  0  0  0  0  0  0
  -10.2770    9.7239  -24.1347 N   0  0  0  0  0  0  0  0  0  0  0  0
   -9.8873    8.4767  -24.3841 C   0  0  0  0  0  0  0  0  0  0  0  0
  -10.1920    7.8988  -25.5677 N   0  0  0  0  0  0  0  0  0  0  0  0
  -10.8808    8.5619  -26.4950 C   0  0  0  0  0  0  0  0  0  0  0  0
  -11.1849    7.9303  -27.7248 N   0  0  0  0  0  0  0  0  0  0  0  0
  -10.7885   14.0685  -25.7358 O   0  0  0  0  0  0  0  0  0  0  0  0
  -13.1128   15.1440  -25.1729 O   0  0  0  0  0  0  0  0  0  0  0  0
  -14.5929   12.5516  -24.2868 H   0  0  0  0  0  0  0  0  0  0  0  0
  -15.3086   13.6946  -23.0296 H   0  0  0  0  0  0  0  0  0  0  0  0
  -13.2526   14.1888  -22.1645 H   0  0  0  0  0  0  0  0  0  0  0  0
  -12.1623   15.6591  -23.4799 H   0  0  0  0  0  0  0  0  0  0  0  0
  -10.2624   14.5040  -23.8458 H   0  0  0  0  0  0  0  0  0  0  0  0
  -10.4624   12.3152  -23.3477 H   0  0  0  0  0  0  0  0  0  0  0  0
  -12.5906   12.7936  -26.5015 H   0  0  0  0  0  0  0  0  0  0  0  0
   -9.3277    7.8986  -23.6659 H   0  0  0  0  0  0  0  0  0  0  0  0
  -11.6216    6.9840  -27.7396 H   0  0  0  0  0  0  0  0  0  0  0  0
  -10.9874    8.3789  -28.6532 H   0  0  0  0  0  0  0  0  0  0  0  0
  -10.3060   14.8896  -25.9971 H   0  0  0  0  0  0  0  0  0  0  0  0
  -13.8218   14.5156  -25.3718 H   0  0  0  0  0  0  0  0  0  0  0  0
  1  2  1  0
  2  3  1  0
  3  4  1  0
  4  5  1  0
  5  6  1  0
  5  7  1  0
  7  8  1  0
  8  9  2  0
  9 10  1  0
 10 11  2  0
 11 12  1  0
 12 13  2  0
 13 14  1  0
 14 15  2  0
 15 16  1  0
  4 17  1  0
  3 18  1  0
  6  2  1  0
 11  7  1  0
 15 10  1  0
  1 19  1  0
  1 20  1  0
  2 21  1  0
  3 22  1  0
  4 23  1  0
  5 24  1  0
  8 25  1  0
 13 26  1  0
 16 27  1  0
 16 28  1  0
 17 29  1  0
 18 30  1  0
M  RAD  1   1   2
M  END
$$$$

     RDKit          3D

 30 32  0  0  0  0  0  0  0  0999 V2000
  -11.6710   14.5270  -21.9884 C   0  0  0  0  0  3  0  0  0  0  0  0
  -12.4743   13.6459  -22.9326 C   0  0  0  0  0  0  0  0  0  0  0  0
  -12.9723   14.5099  -24.0594 C   0  0  0  0  0  0  0  0  0  0  0  0
  -12.7066   13.6069  -25.2596 C   0  0  0  0  0  0  0  0  0  0  0  0
  -11.4417   12.9067  -24.7675 C   0  0  0  0  0  0  0  0  0  0  0  0
  -11.7366   12.6238  -23.4615 O   0  0  0  0  0  0  0  0  0  0  0  0
  -11.1126   11.7784  -25.5679 N   0  0  0  0  0  0  0  0  0  0  0  0
  -10.6609   11.8470  -26.8312 C   0  0  0  0  0  0  0  0  0  0  0  0
  -10.4411   10.6104  -27.3162 N   0  0  0  0  0  0  0  0  0  0  0  0
  -10.7558    9.7392  -26.3520 C   0  0  0  0  0  0  0  0  0  0  0  0
  -11.1780   10.4788  -25.2532 C   0  0  0  0  0  0  0  0  0  0  0  0
  -11.5544    9.8493  -24.1420 N   0  0  0  0  0  0  0  0  0  0  0  0
  -11.5258    8.5051  -24.0843 C   0  0  0  0  0  0  0  0  0  0  0  0
  -11.1152    7.7778  -25.1520 N   0  0  0  0  0  0  0  0  0  0  0  0
  -10.7244    8.3642  -26.2988 C   0  0  0  0  0  0  0  0  0  0  0  0
  -10.2895    7.6455  -27.4351 N   0  0  0  0  0  0  0  0  0  0  0  0
  -12.4583   14.3544  -26.4066 O   0  0  0  0  0  0  0  0  0  0  0  0
  -14.3084   14.8375  -23.9478 O   0  0  0  0  0  0  0  0  0  0  0  0
  -11.9265   14.3363  -20.9222 H   0  0  0  0  0  0  0  0  0  0  0  0
  -10.5785   14.4176  -22.1774 H   0  0  0  0  0  0  0  0  0  0  0  0
  -13.3215   13.2353  -22.3208 H   0  0  0  0  0  0  0  0  0  0  0  0
  -12.3233   15.4133  -24.1529 H   0  0  0  0  0  0  0  0  0  0  0  0
  -13.5002   12.8708  -25.3950 H   0  0  0  0  0  0  0  0  0  0  0  0
  -10.6446   13.7047  -24.7832 H   0  0  0  0  0  0  0  0  0  0  0  0
  -10.4975   12.7602  -27.3788 H   0  0  0  0  0  0  0  0  0  0  0  0
  -11.8246    7.9578  -23.1976 H   0  0  0  0  0  0  0  0  0  0  0  0
  -10.9362    6.9196  -27.8345 H   0  0  0  0  0  0  0  0  0  0  0  0
   -9.3781    7.7741  -27.9135 H   0  0  0  0  0  0  0  0  0  0  0  0
  -13.1544   14.2053  -27.1159 H   0  0  0  0  0  0  0  0  0  0  0  0
  -14.3568   15.8317  -23.8542 H   0  0  0  0  0  0  0  0  0  0  0  0
  1  2  1  0
  2  3  1  0
  3  4  1  0
  4  5  1  0
  5  6  1  0
  5  7  1  0
  7  8  1  0
  8  9  2  0
  9 10  1  0
 10 11  2  0
 11 12  1  0
 12 13  2  0
 13 14  1  0
 14 15  2  0
 15 16  1  0
  4 17  1  0
  3 18  1  0
  6  2  1  0
 11  7  1  0
 15 10  1  0
  1 19  1  0
  1 20  1  0
  2 21  1  0
  3 22  1  0
  4 23  1  0
  5 24  1  0
  8 25  1  0
 13 26  1  0
 16 27  1  0
 16 28  1  0
 17 29  1  0
 18 30  1  0
M  RAD  1   1   2
M  END
$$$$

     RDKit          3D

 30 32  0  0  0  0  0  0  0  0999 V2000
  -14.1929   15.2103  -24.6834 C   0  0  0  0  0  3  0  0  0  0  0  0
  -13.3154   14.2983  -23.8503 C   0  0  0  0  0  0  0  0  0  0  0  0
  -11.8588   14.6577  -23.9345 C   0  0  0  0  0  0  0  0  0  0  0  0
  -11.2541   13.3760  -24.4866 C   0  0  0  0  0  0  0  0  0  0  0  0
  -12.4583   12.7468  -25.1203 C   0  0  0  0  0  0  0  0  0  0  0  0
  -13.4447   12.9704  -24.1836 O   0  0  0  0  0  0  0  0  0  0  0  0
  -12.2906   11.3790  -25.4892 N   0  0  0  0  0  0  0  0  0  0  0  0
  -13.3227   10.5636  -25.7737 C   0  0  0  0  0  0  0  0  0  0  0  0
  -12.8522    9.3452  -26.0838 N   0  0  0  0  0  0  0  0  0  0  0  0
  -11.5097    9.3518  -26.0053 C   0  0  0  0  0  0  0  0  0  0  0  0
  -11.1780   10.6374  -25.6307 C   0  0  0  0  0  0  0  0  0  0  0  0
   -9.9020   10.9525  -25.4706 N   0  0  0  0  0  0  0  0  0  0  0  0
   -8.8993   10.0738  -25.6564 C   0  0  0  0  0  0  0  0  0  0  0  0
   -9.2141    8.8243  -26.0200 N   0  0  0  0  0  0  0  0  0  0  0  0
  -10.4937    8.4528  -26.1959 C   0  0  0  0  0  0  0  0  0  0  0  0
  -10.8187    7.1327  -26.5797 N   0  0  0  0  0  0  0  0  0  0  0  0
  -10.7518   12.6739  -23.4186 O   0  0  0  0  0  0  0  0  0  0  0  0
  -11.3700   14.9616  -22.6733 O   0  0  0  0  0  0  0  0  0  0  0  0
  -14.1973   14.9523  -25.7481 H   0  0  0  0  0  0  0  0  0  0  0  0
  -15.2046   15.2531  -24.2311 H   0  0  0  0  0  0  0  0  0  0  0  0
  -13.6763   14.4019  -22.7873 H   0  0  0  0  0  0  0  0  0  0  0  0
  -11.6538   15.5246  -24.5894 H   0  0  0  0  0  0  0  0  0  0  0  0
  -10.4891   13.6544  -25.2449 H   0  0  0  0  0  0  0  0  0  0  0  0
  -12.7057   13.3379  -26.0259 H   0  0  0  0  0  0  0  0  0  0  0  0
  -14.3854   10.7906  -25.7717 H   0  0  0  0  0  0  0  0  0  0  0  0
   -7.8454   10.3461  -25.5208 H   0  0  0  0  0  0  0  0  0  0  0  0
  -10.0563    6.4547  -26.7931 H   0  0  0  0  0  0  0  0  0  0  0  0
  -11.7851    6.7992  -26.6611 H   0  0  0  0  0  0  0  0  0  0  0  0
  -10.4703   13.2450  -22.6547 H   0  0  0  0  0  0  0  0  0  0  0  0
  -10.7087   15.6834  -22.6723 H   0  0  0  0  0  0  0  0  0  0  0  0
  1  2  1  0
  2  3  1  0
  3  4  1  0
  4  5  1  0
  5  6  1  0
  5  7  1  0
  7  8  1  0
  8  9  2  0
  9 10  1  0
 10 11  2  0
 11 12  1  0
 12 13  2  0
 13 14  1  0
 14 15  2  0
 15 16  1  0
  4 17  1  0
  3 18  1  0
  6  2  1  0
 11  7  1  0
 15 10  1  0
  1 19  1  0
  1 20  1  0
  2 21  1  0
  3 22  1  0
  4 23  1  0
  5 24  1  0
  8 25  1  0
 13 26  1  0
 16 27  1  0
 16 28  1  0
 17 29  1  0
 18 30  1  0
M  RAD  1   1   2
M  END
$$$$

     RDKit          3D

 30 32  0  0  0  0  0  0  0  0999 V2000
  -13.2395   13.8059  -21.9061 C   0  0  0  0  0  3  0  0  0  0  0  0
  -12.1760   13.8533  -22.9763 C   0  0  0  0  0  0  0  0  0  0  0  0
  -12.7758   14.6133  -24.1628 C   0  0  0  0  0  0  0  0  0  0  0  0
  -12.1682   13.9008  -25.3409 C   0  0  0  0  0  0  0  0  0  0  0  0
  -11.2451   12.9016  -24.6729 C   0  0  0  0  0  0  0  0  0  0  0  0
  -11.9344   12.5821  -23.5206 O   0  0  0  0  0  0  0  0  0  0  0  0
  -11.0903   11.7808  -25.5664 N   0  0  0  0  0  0  0  0  0  0  0  0
  -10.9035   11.8454  -26.8959 C   0  0  0  0  0  0  0  0  0  0  0  0
  -10.7997   10.6014  -27.4078 N   0  0  0  0  0  0  0  0  0  0  0  0
  -10.9240    9.7544  -26.3810 C   0  0  0  0  0  0  0  0  0  0  0  0
  -11.1065   10.4978  -25.2252 C   0  0  0  0  0  0  0  0  0  0  0  0
  -11.2602    9.8948  -24.0337 N   0  0  0  0  0  0  0  0  0  0  0  0
  -11.2360    8.5511  -23.9660 C   0  0  0  0  0  0  0  0  0  0  0  0
  -11.0584    7.8114  -25.0888 N   0  0  0  0  0  0  0  0  0  0  0  0
  -10.9009    8.3752  -26.2997 C   0  0  0  0  0  0  0  0  0  0  0  0
  -10.7130    7.6336  -27.4941 N   0  0  0  0  0  0  0  0  0  0  0  0
  -11.4334   14.7991  -26.1229 O   0  0  0  0  0  0  0  0  0  0  0  0
  -14.1621   14.4061  -24.1949 O   0  0  0  0  0  0  0  0  0  0  0  0
  -14.2187   14.1982  -22.2573 H   0  0  0  0  0  0  0  0  0  0  0  0
  -12.9399   14.4249  -21.0340 H   0  0  0  0  0  0  0  0  0  0  0  0
  -11.2608   14.3288  -22.6184 H   0  0  0  0  0  0  0  0  0  0  0  0
  -12.4998   15.6691  -24.0863 H   0  0  0  0  0  0  0  0  0  0  0  0
  -12.9412   13.3825  -25.9697 H   0  0  0  0  0  0  0  0  0  0  0  0
  -10.2864   13.4273  -24.4746 H   0  0  0  0  0  0  0  0  0  0  0  0
  -10.8486   12.7921  -27.4513 H   0  0  0  0  0  0  0  0  0  0  0  0
  -11.3546    8.0157  -23.0347 H   0  0  0  0  0  0  0  0  0  0  0  0
   -9.8504    7.5843  -28.0408 H   0  0  0  0  0  0  0  0  0  0  0  0
  -11.5592    7.0892  -27.8301 H   0  0  0  0  0  0  0  0  0  0  0  0
  -10.5302   14.9023  -25.7130 H   0  0  0  0  0  0  0  0  0  0  0  0
  -14.4127   14.2746  -25.1425 H   0  0  0  0  0  0  0  0  0  0  0  0
  1  2  1  0
  2  3  1  0
  3  4  1  0
  4  5  1  0
  5  6  1  0
  5  7  1  0
  7  8  1  0
  8  9  2  0
  9 10  1  0
 10 11  2  0
 11 12  1  0
 12 13  2  0
 13 14  1  0
 14 15  2  0
 15 16  1  0
  4 17  1  0
  3 18  1  0
  6  2  1  0
 11  7  1  0
 15 10  1  0
  1 19  1  0
  1 20  1  0
  2 21  1  0
  3 22  1  0
  4 23  1  0
  5 24  1  0
  8 25  1  0
 13 26  1  0
 16 27  1  0
 16 28  1  0
 17 29  1  0
 18 30  1  0
M  RAD  1   1   2
M  END
$$$$

     RDKit          3D

 30 32  0  0  0  0  0  0  0  0999 V2000
  -14.2533   14.6128  -22.8316 C   0  0  0  0  0  3  0  0  0  0  0  0
  -13.5972   13.8218  -23.9707 C   0  0  0  0  0  0  0  0  0  0  0  0
  -12.5143   14.6374  -24.5881 C   0  0  0  0  0  0  0  0  0  0  0  0
  -11.2982   13.7749  -24.5145 C   0  0  0  0  0  0  0  0  0  0  0  0
  -11.8309   12.4513  -24.0457 C   0  0  0  0  0  0  0  0  0  0  0  0
  -13.0865   12.6360  -23.5420 O   0  0  0  0  0  0  0  0  0  0  0  0
  -11.7698   11.4407  -25.0976 N   0  0  0  0  0  0  0  0  0  0  0  0
  -12.4757   11.4868  -26.2359 C   0  0  0  0  0  0  0  0  0  0  0  0
  -12.1554   10.3934  -26.9449 N   0  0  0  0  0  0  0  0  0  0  0  0
  -11.2516    9.6617  -26.2563 C   0  0  0  0  0  0  0  0  0  0  0  0
  -11.0089   10.3302  -25.0828 C   0  0  0  0  0  0  0  0  0  0  0  0
  -10.1384    9.8522  -24.1605 N   0  0  0  0  0  0  0  0  0  0  0  0
   -9.5335    8.6880  -24.4703 C   0  0  0  0  0  0  0  0  0  0  0  0
   -9.7492    8.0182  -25.5996 N   0  0  0  0  0  0  0  0  0  0  0  0
  -10.6090    8.4761  -26.5271 C   0  0  0  0  0  0  0  0  0  0  0  0
  -10.8742    7.8003  -27.7468 N   0  0  0  0  0  0  0  0  0  0  0  0
  -10.6382   13.6734  -25.7358 O   0  0  0  0  0  0  0  0  0  0  0  0
  -12.3428   15.8529  -23.9058 O   0  0  0  0  0  0  0  0  0  0  0  0
  -15.1727   14.0688  -22.5316 H   0  0  0  0  0  0  0  0  0  0  0  0
  -13.5560   14.7847  -22.0044 H   0  0  0  0  0  0  0  0  0  0  0  0
  -14.4161   13.6794  -24.7295 H   0  0  0  0  0  0  0  0  0  0  0  0
  -12.7309   14.8887  -25.6455 H   0  0  0  0  0  0  0  0  0  0  0  0
  -10.5833   14.2368  -23.8012 H   0  0  0  0  0  0  0  0  0  0  0  0
  -11.1717   12.1258  -23.1935 H   0  0  0  0  0  0  0  0  0  0  0  0
  -13.1893   12.2394  -26.5799 H   0  0  0  0  0  0  0  0  0  0  0  0
   -8.8318    8.3159  -23.7116 H   0  0  0  0  0  0  0  0  0  0  0  0
  -10.1182    7.8192  -28.4705 H   0  0  0  0  0  0  0  0  0  0  0  0
  -11.7797    7.3240  -27.8788 H   0  0  0  0  0  0  0  0  0  0  0  0
  -11.2450   13.6469  -26.5107 H   0  0  0  0  0  0  0  0  0  0  0  0
  -11.6322   16.3437  -24.4271 H   0  0  0  0  0  0  0  0  0  0  0  0
  1  2  1  0
  2  3  1  0
  3  4  1  0
  4  5  1  0
  5  6  1  0
  5  7  1  0
  7  8  1  0
  8  9  2  0
  9 10  1  0
 10 11  2  0
 11 12  1  0
 12 13  2  0
 13 14  1  0
 14 15  2  0
 15 16  1  0
  4 17  1  0
  3 18  1  0
  6  2  1  0
 11  7  1  0
 15 10  1  0
  1 19  1  0
  1 20  1  0
  2 21  1  0
  3 22  1  0
  4 23  1  0
  5 24  1  0
  8 25  1  0
 13 26  1  0
 16 27  1  0
 16 28  1  0
 17 29  1  0
 18 30  1  0
M  RAD  1   1   2
M  END
$$$$

     RDKit          3D

 30 32  0  0  0  0  0  0  0  0999 V2000
  -13.0368   15.7595  -25.6012 C   0  0  0  0  0  3  0  0  0  0  0  0
  -13.0113   14.5060  -24.7654 C   0  0  0  0  0  0  0  0  0  0  0  0
  -11.8659   14.5381  -23.7682 C   0  0  0  0  0  0  0  0  0  0  0  0
  -11.3851   13.0979  -23.8247 C   0  0  0  0  0  0  0  0  0  0  0  0
  -12.5807   12.4501  -24.4976 C   0  0  0  0  0  0  0  0  0  0  0  0
  -12.8106   13.3609  -25.5469 O   0  0  0  0  0  0  0  0  0  0  0  0
  -12.3721   11.1249  -24.9176 N   0  0  0  0  0  0  0  0  0  0  0  0
  -13.2758   10.1362  -24.7910 C   0  0  0  0  0  0  0  0  0  0  0  0
  -12.7239    9.0144  -25.3023 N   0  0  0  0  0  0  0  0  0  0  0  0
  -11.4830    9.2828  -25.7501 C   0  0  0  0  0  0  0  0  0  0  0  0
  -11.2725   10.6279  -25.4992 C   0  0  0  0  0  0  0  0  0  0  0  0
  -10.0841   11.1350  -25.8652 N   0  0  0  0  0  0  0  0  0  0  0  0
   -9.1421   10.3869  -26.4445 C   0  0  0  0  0  0  0  0  0  0  0  0
   -9.3454    9.0876  -26.6869 N   0  0  0  0  0  0  0  0  0  0  0  0
  -10.5018    8.5199  -26.3494 C   0  0  0  0  0  0  0  0  0  0  0  0
  -10.7106    7.1462  -26.6082 N   0  0  0  0  0  0  0  0  0  0  0  0
  -11.2152   12.5726  -22.5401 O   0  0  0  0  0  0  0  0  0  0  0  0
  -12.3099   14.8610  -22.4977 O   0  0  0  0  0  0  0  0  0  0  0  0
  -14.0213   16.2613  -25.4631 H   0  0  0  0  0  0  0  0  0  0  0  0
  -12.2357   16.4604  -25.2245 H   0  0  0  0  0  0  0  0  0  0  0  0
  -13.9891   14.3409  -24.2408 H   0  0  0  0  0  0  0  0  0  0  0  0
  -11.0772   15.2064  -24.1513 H   0  0  0  0  0  0  0  0  0  0  0  0
  -10.4834   12.9888  -24.4281 H   0  0  0  0  0  0  0  0  0  0  0  0
  -13.4373   12.5925  -23.8029 H   0  0  0  0  0  0  0  0  0  0  0  0
  -14.2740   10.1399  -24.3756 H   0  0  0  0  0  0  0  0  0  0  0  0
   -8.1947   10.8796  -26.7140 H   0  0  0  0  0  0  0  0  0  0  0  0
  -10.9557    6.4846  -25.8467 H   0  0  0  0  0  0  0  0  0  0  0  0
  -10.6176    6.7919  -27.5749 H   0  0  0  0  0  0  0  0  0  0  0  0
  -12.0764   12.2133  -22.2132 H   0  0  0  0  0  0  0  0  0  0  0  0
  -13.1936   15.3116  -22.6160 H   0  0  0  0  0  0  0  0  0  0  0  0
  1  2  1  0
  2  3  1  0
  3  4  1  0
  4  5  1  0
  5  6  1  0
  5  7  1  0
  7  8  1  0
  8  9  2  0
  9 10  1  0
 10 11  2  0
 11 12  1  0
 12 13  2  0
 13 14  1  0
 14 15  2  0
 15 16  1  0
  4 17  1  0
  3 18  1  0
  6  2  1  0
 11  7  1  0
 15 10  1  0
  1 19  1  0
  1 20  1  0
  2 21  1  0
  3 22  1  0
  4 23  1  0
  5 24  1  0
  8 25  1  0
 13 26  1  0
 16 27  1  0
 16 28  1  0
 17 29  1  0
 18 30  1  0
M  RAD  1   1   2
M  END
$$$$

     RDKit          3D

 30 32  0  0  0  0  0  0  0  0999 V2000
  -14.2383   15.1281  -24.5392 C   0  0  0  0  0  3  0  0  0  0  0  0
  -13.4624   14.0925  -23.7181 C   0  0  0  0  0  0  0  0  0  0  0  0
  -12.0110   14.4846  -23.5702 C   0  0  0  0  0  0  0  0  0  0  0  0
  -11.3107   13.2288  -24.1069 C   0  0  0  0  0  0  0  0  0  0  0  0
  -12.3291   12.8230  -25.1695 C   0  0  0  0  0  0  0  0  0  0  0  0
  -13.5103   12.9115  -24.4178 O   0  0  0  0  0  0  0  0  0  0  0  0
  -12.1825   11.4675  -25.5880 N   0  0  0  0  0  0  0  0  0  0  0  0
  -13.2071   10.7510  -26.1272 C   0  0  0  0  0  0  0  0  0  0  0  0
  -12.7689    9.5287  -26.4164 N   0  0  0  0  0  0  0  0  0  0  0  0
  -11.4779    9.4390  -26.0744 C   0  0  0  0  0  0  0  0  0  0  0  0
  -11.1188   10.6529  -25.5581 C   0  0  0  0  0  0  0  0  0  0  0  0
   -9.8672   10.8385  -25.1339 N   0  0  0  0  0  0  0  0  0  0  0  0
   -8.9953    9.8156  -25.2302 C   0  0  0  0  0  0  0  0  0  0  0  0
   -9.3322    8.6178  -25.7346 N   0  0  0  0  0  0  0  0  0  0  0  0
  -10.5823    8.3982  -26.1699 C   0  0  0  0  0  0  0  0  0  0  0  0
  -10.9695    7.1432  -26.7083 N   0  0  0  0  0  0  0  0  0  0  0  0
  -10.1124   13.5365  -24.7231 O   0  0  0  0  0  0  0  0  0  0  0  0
  -11.6512   14.7505  -22.2702 O   0  0  0  0  0  0  0  0  0  0  0  0
  -13.8086   15.0494  -25.5792 H   0  0  0  0  0  0  0  0  0  0  0  0
  -15.2737   14.6984  -24.6267 H   0  0  0  0  0  0  0  0  0  0  0  0
  -13.9291   13.9393  -22.7263 H   0  0  0  0  0  0  0  0  0  0  0  0
  -11.7816   15.3539  -24.2291 H   0  0  0  0  0  0  0  0  0  0  0  0
  -11.2309   12.4668  -23.3237 H   0  0  0  0  0  0  0  0  0  0  0  0
  -12.2830   13.5594  -25.9781 H   0  0  0  0  0  0  0  0  0  0  0  0
  -14.2342   11.0955  -26.3064 H   0  0  0  0  0  0  0  0  0  0  0  0
   -7.9940    9.9778  -24.8862 H   0  0  0  0  0  0  0  0  0  0  0  0
  -11.9713    6.8676  -26.7388 H   0  0  0  0  0  0  0  0  0  0  0  0
  -10.2728    6.4704  -27.0835 H   0  0  0  0  0  0  0  0  0  0  0  0
  -10.1236   14.4783  -25.0414 H   0  0  0  0  0  0  0  0  0  0  0  0
  -11.7122   15.7492  -22.1531 H   0  0  0  0  0  0  0  0  0  0  0  0
  1  2  1  0
  2  3  1  0
  3  4  1  0
  4  5  1  0
  5  6  1  0
  5  7  1  0
  7  8  1  0
  8  9  2  0
  9 10  1  0
 10 11  2  0
 11 12  1  0
 12 13  2  0
 13 14  1  0
 14 15  2  0
 15 16  1  0
  4 17  1  0
  3 18  1  0
  6  2  1  0
 11  7  1  0
 15 10  1  0
  1 19  1  0
  1 20  1  0
  2 21  1  0
  3 22  1  0
  4 23  1  0
  5 24  1  0
  8 25  1  0
 13 26  1  0
 16 27  1  0
 16 28  1  0
 17 29  1  0
 18 30  1  0
M  RAD  1   1   2
M  END
$$$$

     RDKit          3D

 30 32  0  0  0  0  0  0  0  0999 V2000
  -13.4337   14.3823  -22.2410 C   0  0  0  0  0  3  0  0  0  0  0  0
  -13.5581   13.7358  -23.6145 C   0  0  0  0  0  0  0  0  0  0  0  0
  -12.8279   14.6022  -24.6074 C   0  0  0  0  0  0  0  0  0  0  0  0
  -11.4687   13.9432  -24.6828 C   0  0  0  0  0  0  0  0  0  0  0  0
  -11.7411   12.5617  -24.1983 C   0  0  0  0  0  0  0  0  0  0  0  0
  -12.9480   12.5212  -23.5668 O   0  0  0  0  0  0  0  0  0  0  0  0
  -11.6153   11.5587  -25.2373 N   0  0  0  0  0  0  0  0  0  0  0  0
  -12.0400   11.6794  -26.5078 C   0  0  0  0  0  0  0  0  0  0  0  0
  -11.7429   10.5418  -27.1600 N   0  0  0  0  0  0  0  0  0  0  0  0
  -11.1302    9.6829  -26.3290 C   0  0  0  0  0  0  0  0  0  0  0  0
  -11.0578   10.3412  -25.1191 C   0  0  0  0  0  0  0  0  0  0  0  0
  -10.4774    9.7065  -24.0698 N   0  0  0  0  0  0  0  0  0  0  0  0
   -9.9846    8.4629  -24.2102 C   0  0  0  0  0  0  0  0  0  0  0  0
  -10.0666    7.8409  -25.4000 N   0  0  0  0  0  0  0  0  0  0  0  0
  -10.6273    8.4023  -26.4889 C   0  0  0  0  0  0  0  0  0  0  0  0
  -10.7040    7.7265  -27.7390 N   0  0  0  0  0  0  0  0  0  0  0  0
  -10.9502   14.0079  -25.9550 O   0  0  0  0  0  0  0  0  0  0  0  0
  -12.7533   15.9105  -24.1292 O   0  0  0  0  0  0  0  0  0  0  0  0
  -13.9908   13.8512  -21.4667 H   0  0  0  0  0  0  0  0  0  0  0  0
  -13.5608   15.4645  -22.2624 H   0  0  0  0  0  0  0  0  0  0  0  0
  -14.6083   13.6062  -23.9100 H   0  0  0  0  0  0  0  0  0  0  0  0
  -13.3354   14.5611  -25.5892 H   0  0  0  0  0  0  0  0  0  0  0  0
  -10.8170   14.5113  -23.9582 H   0  0  0  0  0  0  0  0  0  0  0  0
  -10.9523   12.3238  -23.4253 H   0  0  0  0  0  0  0  0  0  0  0  0
  -12.5382   12.5672  -26.9064 H   0  0  0  0  0  0  0  0  0  0  0  0
   -9.5123    7.9430  -23.3619 H   0  0  0  0  0  0  0  0  0  0  0  0
  -10.8028    6.6958  -27.7308 H   0  0  0  0  0  0  0  0  0  0  0  0
  -10.6664    8.2077  -28.6593 H   0  0  0  0  0  0  0  0  0  0  0  0
  -10.1332   14.5519  -25.9410 H   0  0  0  0  0  0  0  0  0  0  0  0
  -12.1160   16.4630  -24.6261 H   0  0  0  0  0  0  0  0  0  0  0  0
  1  2  1  0
  2  3  1  0
  3  4  1  0
  4  5  1  0
  5  6  1  0
  5  7  1  0
  7  8  1  0
  8  9  2  0
  9 10  1  0
 10 11  2  0
 11 12  1  0
 12 13  2  0
 13 14  1  0
 14 15  2  0
 15 16  1  0
  4 17  1  0
  3 18  1  0
  6  2  1  0
 11  7  1  0
 15 10  1  0
  1 19  1  0
  1 20  1  0
  2 21  1  0
  3 22  1  0
  4 23  1  0
  5 24  1  0
  8 25  1  0
 13 26  1  0
 16 27  1  0
 16 28  1  0
 17 29  1  0
 18 30  1  0
M  RAD  1   1   2
M  END
$$$$

     RDKit          3D

 30 32  0  0  0  0  0  0  0  0999 V2000
  -14.5241   14.5950  -23.6374 C   0  0  0  0  0  3  0  0  0  0  0  0
  -13.1559   14.0230  -23.2991 C   0  0  0  0  0  0  0  0  0  0  0  0
  -12.0395   14.8227  -23.8807 C   0  0  0  0  0  0  0  0  0  0  0  0
  -11.6164   13.9231  -25.0513 C   0  0  0  0  0  0  0  0  0  0  0  0
  -11.8290   12.5680  -24.3641 C   0  0  0  0  0  0  0  0  0  0  0  0
  -13.0407   12.7209  -23.7039 O   0  0  0  0  0  0  0  0  0  0  0  0
  -11.8138   11.4855  -25.2882 N   0  0  0  0  0  0  0  0  0  0  0  0
  -12.5811   11.3603  -26.3761 C   0  0  0  0  0  0  0  0  0  0  0  0
  -12.2496   10.1894  -26.9737 N   0  0  0  0  0  0  0  0  0  0  0  0
  -11.2849    9.5916  -26.2639 C   0  0  0  0  0  0  0  0  0  0  0  0
  -11.0075   10.4160  -25.1916 C   0  0  0  0  0  0  0  0  0  0  0  0
  -10.0644   10.0462  -24.3107 N   0  0  0  0  0  0  0  0  0  0  0  0
   -9.3884    8.9099  -24.4385 C   0  0  0  0  0  0  0  0  0  0  0  0
   -9.6572    8.1037  -25.4841 N   0  0  0  0  0  0  0  0  0  0  0  0
  -10.5864    8.4155  -26.3977 C   0  0  0  0  0  0  0  0  0  0  0  0
  -10.8373    7.5394  -27.4813 N   0  0  0  0  0  0  0  0  0  0  0  0
  -12.4678   14.0755  -26.1263 O   0  0  0  0  0  0  0  0  0  0  0  0
  -10.9831   14.8223  -22.9875 O   0  0  0  0  0  0  0  0  0  0  0  0
  -15.1825   13.8148  -24.0686 H   0  0  0  0  0  0  0  0  0  0  0  0
  -14.4125   15.4791  -24.2931 H   0  0  0  0  0  0  0  0  0  0  0  0
  -13.0942   14.0519  -22.1725 H   0  0  0  0  0  0  0  0  0  0  0  0
  -12.3246   15.8255  -24.2319 H   0  0  0  0  0  0  0  0  0  0  0  0
  -10.5516   14.0765  -25.3088 H   0  0  0  0  0  0  0  0  0  0  0  0
  -11.0152   12.4938  -23.6135 H   0  0  0  0  0  0  0  0  0  0  0  0
  -13.3443   12.0105  -26.7832 H   0  0  0  0  0  0  0  0  0  0  0  0
   -8.6422    8.6772  -23.6894 H   0  0  0  0  0  0  0  0  0  0  0  0
  -10.3715    7.6021  -28.4131 H   0  0  0  0  0  0  0  0  0  0  0  0
  -11.5339    6.7735  -27.3527 H   0  0  0  0  0  0  0  0  0  0  0  0
  -12.8878   14.9757  -26.1649 H   0  0  0  0  0  0  0  0  0  0  0  0
  -11.0836   14.1545  -22.2551 H   0  0  0  0  0  0  0  0  0  0  0  0
  1  2  1  0
  2  3  1  0
  3  4  1  0
  4  5  1  0
  5  6  1  0
  5  7  1  0
  7  8  1  0
  8  9  2  0
  9 10  1  0
 10 11  2  0
 11 12  1  0
 12 13  2  0
 13 14  1  0
 14 15  2  0
 15 16  1  0
  4 17  1  0
  3 18  1  0
  6  2  1  0
 11  7  1  0
 15 10  1  0
  1 19  1  0
  1 20  1  0
  2 21  1  0
  3 22  1  0
  4 23  1  0
  5 24  1  0
  8 25  1  0
 13 26  1  0
 16 27  1  0
 16 28  1  0
 17 29  1  0
 18 30  1  0
M  RAD  1   1   2
M  END
$$$$

     RDKit          3D

 30 32  0  0  0  0  0  0  0  0999 V2000
  -14.5132   14.8808  -24.3956 C   0  0  0  0  0  3  0  0  0  0  0  0
  -13.0278   14.7691  -24.7661 C   0  0  0  0  0  0  0  0  0  0  0  0
  -12.2794   14.5795  -23.4630 C   0  0  0  0  0  0  0  0  0  0  0  0
  -12.2827   13.0438  -23.4172 C   0  0  0  0  0  0  0  0  0  0  0  0
  -11.9648   12.8052  -24.9006 C   0  0  0  0  0  0  0  0  0  0  0  0
  -12.8731   13.6312  -25.5105 O   0  0  0  0  0  0  0  0  0  0  0  0
  -12.0705   11.4303  -25.2538 N   0  0  0  0  0  0  0  0  0  0  0  0
  -13.1405   10.6452  -25.3285 C   0  0  0  0  0  0  0  0  0  0  0  0
  -12.8052    9.3954  -25.7037 N   0  0  0  0  0  0  0  0  0  0  0  0
  -11.4880    9.3739  -25.8749 C   0  0  0  0  0  0  0  0  0  0  0  0
  -11.0127   10.6421  -25.5967 C   0  0  0  0  0  0  0  0  0  0  0  0
   -9.6883   10.8704  -25.7022 N   0  0  0  0  0  0  0  0  0  0  0  0
   -8.8060    9.9197  -26.0664 C   0  0  0  0  0  0  0  0  0  0  0  0
   -9.2833    8.6870  -26.3349 N   0  0  0  0  0  0  0  0  0  0  0  0
  -10.5903    8.3731  -26.2544 C   0  0  0  0  0  0  0  0  0  0  0  0
  -11.0358    7.0606  -26.5482 N   0  0  0  0  0  0  0  0  0  0  0  0
  -11.3112   12.5458  -22.5898 O   0  0  0  0  0  0  0  0  0  0  0  0
  -10.9542   14.9548  -23.5494 O   0  0  0  0  0  0  0  0  0  0  0  0
  -14.6960   14.4975  -23.3666 H   0  0  0  0  0  0  0  0  0  0  0  0
  -15.1331   14.2358  -25.0639 H   0  0  0  0  0  0  0  0  0  0  0  0
  -12.6935   15.6906  -25.3041 H   0  0  0  0  0  0  0  0  0  0  0  0
  -12.8106   15.0043  -22.6010 H   0  0  0  0  0  0  0  0  0  0  0  0
  -13.3005   12.6741  -23.2205 H   0  0  0  0  0  0  0  0  0  0  0  0
  -10.9517   13.1957  -25.0541 H   0  0  0  0  0  0  0  0  0  0  0  0
  -14.1527   11.0025  -25.1062 H   0  0  0  0  0  0  0  0  0  0  0  0
   -7.7361   10.1189  -26.1477 H   0  0  0  0  0  0  0  0  0  0  0  0
  -11.4360    6.8522  -27.4871 H   0  0  0  0  0  0  0  0  0  0  0  0
  -10.9492    6.3155  -25.7957 H   0  0  0  0  0  0  0  0  0  0  0  0
  -11.7591   12.0305  -21.8717 H   0  0  0  0  0  0  0  0  0  0  0  0
  -10.7790   15.7197  -24.1200 H   0  0  0  0  0  0  0  0  0  0  0  0
  1  2  1  0
  2  3  1  0
  3  4  1  0
  4  5  1  0
  5  6  1  0
  5  7  1  0
  7  8  1  0
  8  9  2  0
  9 10  1  0
 10 11  2  0
 11 12  1  0
 12 13  2  0
 13 14  1  0
 14 15  2  0
 15 16  1  0
  4 17  1  0
  3 18  1  0
  6  2  1  0
 11  7  1  0
 15 10  1  0
  1 19  1  0
  1 20  1  0
  2 21  1  0
  3 22  1  0
  4 23  1  0
  5 24  1  0
  8 25  1  0
 13 26  1  0
 16 27  1  0
 16 28  1  0
 17 29  1  0
 18 30  1  0
M  RAD  1   1   2
M  END
$$$$

     RDKit          3D

 30 32  0  0  0  0  0  0  0  0999 V2000
  -14.4457   14.6437  -23.0404 C   0  0  0  0  0  3  0  0  0  0  0  0
  -13.0948   13.9547  -23.1750 C   0  0  0  0  0  0  0  0  0  0  0  0
  -12.1160   14.7918  -23.9372 C   0  0  0  0  0  0  0  0  0  0  0  0
  -11.4042   13.7540  -24.8080 C   0  0  0  0  0  0  0  0  0  0  0  0
  -11.9732   12.4728  -24.2835 C   0  0  0  0  0  0  0  0  0  0  0  0
  -13.2920   12.8138  -23.9533 O   0  0  0  0  0  0  0  0  0  0  0  0
  -11.9270   11.4035  -25.2488 N   0  0  0  0  0  0  0  0  0  0  0  0
  -12.6909   11.2434  -26.3281 C   0  0  0  0  0  0  0  0  0  0  0  0
  -12.3539   10.1198  -26.9923 N   0  0  0  0  0  0  0  0  0  0  0  0
  -11.3449    9.5423  -26.3203 C   0  0  0  0  0  0  0  0  0  0  0  0
  -11.0808   10.3418  -25.2365 C   0  0  0  0  0  0  0  0  0  0  0  0
  -10.1059    9.9995  -24.3812 N   0  0  0  0  0  0  0  0  0  0  0  0
   -9.3781    8.8832  -24.5647 C   0  0  0  0  0  0  0  0  0  0  0  0
   -9.6192    8.0841  -25.6202 N   0  0  0  0  0  0  0  0  0  0  0  0
  -10.5887    8.3883  -26.5053 C   0  0  0  0  0  0  0  0  0  0  0  0
  -10.8841    7.5911  -27.6248 N   0  0  0  0  0  0  0  0  0  0  0  0
  -10.0240   13.8610  -24.5550 O   0  0  0  0  0  0  0  0  0  0  0  0
  -12.8035   15.7191  -24.6815 O   0  0  0  0  0  0  0  0  0  0  0  0
  -14.7906   14.8590  -24.0723 H   0  0  0  0  0  0  0  0  0  0  0  0
  -15.1499   13.8838  -22.6369 H   0  0  0  0  0  0  0  0  0  0  0  0
  -12.7211   13.6429  -22.1794 H   0  0  0  0  0  0  0  0  0  0  0  0
  -11.4139   15.2632  -23.2247 H   0  0  0  0  0  0  0  0  0  0  0  0
  -11.5821   13.9231  -25.8810 H   0  0  0  0  0  0  0  0  0  0  0  0
  -11.4683   12.2319  -23.3407 H   0  0  0  0  0  0  0  0  0  0  0  0
  -13.4824   11.8939  -26.6667 H   0  0  0  0  0  0  0  0  0  0  0  0
   -8.5803    8.6040  -23.8638 H   0  0  0  0  0  0  0  0  0  0  0  0
  -11.6373    6.8746  -27.6403 H   0  0  0  0  0  0  0  0  0  0  0  0
  -10.3160    7.7258  -28.4883 H   0  0  0  0  0  0  0  0  0  0  0  0
   -9.8365   14.7638  -24.1776 H   0  0  0  0  0  0  0  0  0  0  0  0
  -12.6935   16.6304  -24.2958 H   0  0  0  0  0  0  0  0  0  0  0  0
  1  2  1  0
  2  3  1  0
  3  4  1  0
  4  5  1  0
  5  6  1  0
  5  7  1  0
  7  8  1  0
  8  9  2  0
  9 10  1  0
 10 11  2  0
 11 12  1  0
 12 13  2  0
 13 14  1  0
 14 15  2  0
 15 16  1  0
  4 17  1  0
  3 18  1  0
  6  2  1  0
 11  7  1  0
 15 10  1  0
  1 19  1  0
  1 20  1  0
  2 21  1  0
  3 22  1  0
  4 23  1  0
  5 24  1  0
  8 25  1  0
 13 26  1  0
 16 27  1  0
 16 28  1  0
 17 29  1  0
 18 30  1  0
M  RAD  1   1   2
M  END
$$$$

     RDKit          3D

 30 32  0  0  0  0  0  0  0  0999 V2000
  -12.6050   14.0400  -21.7888 C   0  0  0  0  0  3  0  0  0  0  0  0
  -13.0254   13.8448  -23.2412 C   0  0  0  0  0  0  0  0  0  0  0  0
  -12.2684   14.7916  -24.1207 C   0  0  0  0  0  0  0  0  0  0  0  0
  -11.5230   13.8237  -25.0446 C   0  0  0  0  0  0  0  0  0  0  0  0
  -12.5691   12.6990  -25.0312 C   0  0  0  0  0  0  0  0  0  0  0  0
  -12.7571   12.5526  -23.6854 O   0  0  0  0  0  0  0  0  0  0  0  0
  -12.1507   11.5467  -25.7360 N   0  0  0  0  0  0  0  0  0  0  0  0
  -12.5115   11.2765  -27.0259 C   0  0  0  0  0  0  0  0  0  0  0  0
  -11.9719   10.1324  -27.4215 N   0  0  0  0  0  0  0  0  0  0  0  0
  -11.2613    9.6537  -26.3993 C   0  0  0  0  0  0  0  0  0  0  0  0
  -11.3700   10.5363  -25.3403 C   0  0  0  0  0  0  0  0  0  0  0  0
  -10.7354   10.2618  -24.1975 N   0  0  0  0  0  0  0  0  0  0  0  0
  -10.0025    9.1357  -24.0926 C   0  0  0  0  0  0  0  0  0  0  0  0
   -9.8929    8.2715  -25.1217 N   0  0  0  0  0  0  0  0  0  0  0  0
  -10.5057    8.4943  -26.2887 C   0  0  0  0  0  0  0  0  0  0  0  0
  -10.4301    7.6255  -27.4078 N   0  0  0  0  0  0  0  0  0  0  0  0
  -10.3794   13.4399  -24.3676 O   0  0  0  0  0  0  0  0  0  0  0  0
  -13.1675   15.4820  -24.9451 O   0  0  0  0  0  0  0  0  0  0  0  0
  -11.7984   14.8041  -21.7465 H   0  0  0  0  0  0  0  0  0  0  0  0
  -12.2802   13.1058  -21.3232 H   0  0  0  0  0  0  0  0  0  0  0  0
  -14.1275   14.0545  -23.3093 H   0  0  0  0  0  0  0  0  0  0  0  0
  -11.5823   15.4542  -23.5866 H   0  0  0  0  0  0  0  0  0  0  0  0
  -11.3592   14.2288  -26.0379 H   0  0  0  0  0  0  0  0  0  0  0  0
  -13.4892   13.1499  -25.4608 H   0  0  0  0  0  0  0  0  0  0  0  0
  -13.1540   11.9065  -27.6541 H   0  0  0  0  0  0  0  0  0  0  0  0
   -9.4720    8.8813  -23.1749 H   0  0  0  0  0  0  0  0  0  0  0  0
   -9.4900    7.2463  -27.6665 H   0  0  0  0  0  0  0  0  0  0  0  0
  -11.2684    7.3730  -27.9509 H   0  0  0  0  0  0  0  0  0  0  0  0
  -10.6802   13.1983  -23.4357 H   0  0  0  0  0  0  0  0  0  0  0  0
  -12.9231   15.4243  -25.9006 H   0  0  0  0  0  0  0  0  0  0  0  0
  1  2  1  0
  2  3  1  0
  3  4  1  0
  4  5  1  0
  5  6  1  0
  5  7  1  0
  7  8  1  0
  8  9  2  0
  9 10  1  0
 10 11  2  0
 11 12  1  0
 12 13  2  0
 13 14  1  0
 14 15  2  0
 15 16  1  0
  4 17  1  0
  3 18  1  0
  6  2  1  0
 11  7  1  0
 15 10  1  0
  1 19  1  0
  1 20  1  0
  2 21  1  0
  3 22  1  0
  4 23  1  0
  5 24  1  0
  8 25  1  0
 13 26  1  0
 16 27  1  0
 16 28  1  0
 17 29  1  0
 18 30  1  0
M  RAD  1   1   2
M  END
$$$$

     RDKit          3D

 30 32  0  0  0  0  0  0  0  0999 V2000
  -13.8694   14.9810  -24.8766 C   0  0  0  0  0  3  0  0  0  0  0  0
  -13.3270   14.2509  -23.6650 C   0  0  0  0  0  0  0  0  0  0  0  0
  -11.8365   14.4874  -23.5013 C   0  0  0  0  0  0  0  0  0  0  0  0
  -11.2468   13.1764  -23.9913 C   0  0  0  0  0  0  0  0  0  0  0  0
  -12.3912   12.7170  -24.8676 C   0  0  0  0  0  0  0  0  0  0  0  0
  -13.4582   12.8761  -23.9557 O   0  0  0  0  0  0  0  0  0  0  0  0
  -12.2680   11.3956  -25.3549 N   0  0  0  0  0  0  0  0  0  0  0  0
  -13.3094   10.6071  -25.7016 C   0  0  0  0  0  0  0  0  0  0  0  0
  -12.8606    9.4043  -26.1275 N   0  0  0  0  0  0  0  0  0  0  0  0
  -11.5415    9.4539  -26.0425 C   0  0  0  0  0  0  0  0  0  0  0  0
  -11.1671   10.6911  -25.5622 C   0  0  0  0  0  0  0  0  0  0  0  0
   -9.8752   10.9358  -25.4058 N   0  0  0  0  0  0  0  0  0  0  0  0
   -8.8926   10.0641  -25.6813 C   0  0  0  0  0  0  0  0  0  0  0  0
   -9.2233    8.8519  -26.1501 N   0  0  0  0  0  0  0  0  0  0  0  0
  -10.5215    8.5683  -26.3214 C   0  0  0  0  0  0  0  0  0  0  0  0
  -10.8849    7.2865  -26.8176 N   0  0  0  0  0  0  0  0  0  0  0  0
  -11.0783   12.3707  -22.8695 O   0  0  0  0  0  0  0  0  0  0  0  0
  -11.3753   15.4899  -24.3641 O   0  0  0  0  0  0  0  0  0  0  0  0
  -14.1913   16.0132  -24.6209 H   0  0  0  0  0  0  0  0  0  0  0  0
  -14.8195   14.4361  -25.1543 H   0  0  0  0  0  0  0  0  0  0  0  0
  -13.8739   14.5119  -22.7347 H   0  0  0  0  0  0  0  0  0  0  0  0
  -11.5643   14.6984  -22.4485 H   0  0  0  0  0  0  0  0  0  0  0  0
  -10.3134   13.3218  -24.5677 H   0  0  0  0  0  0  0  0  0  0  0  0
  -12.5395   13.4986  -25.6372 H   0  0  0  0  0  0  0  0  0  0  0  0
  -14.3698   10.8595  -25.6611 H   0  0  0  0  0  0  0  0  0  0  0  0
   -7.8307   10.3223  -25.5314 H   0  0  0  0  0  0  0  0  0  0  0  0
  -11.6005    6.7539  -26.2893 H   0  0  0  0  0  0  0  0  0  0  0  0
  -10.4260    6.9478  -27.6706 H   0  0  0  0  0  0  0  0  0  0  0  0
  -10.6994   12.8613  -22.0994 H   0  0  0  0  0  0  0  0  0  0  0  0
  -12.0920   16.0863  -24.6380 H   0  0  0  0  0  0  0  0  0  0  0  0
  1  2  1  0
  2  3  1  0
  3  4  1  0
  4  5  1  0
  5  6  1  0
  5  7  1  0
  7  8  1  0
  8  9  2  0
  9 10  1  0
 10 11  2  0
 11 12  1  0
 12 13  2  0
 13 14  1  0
 14 15  2  0
 15 16  1  0
  4 17  1  0
  3 18  1  0
  6  2  1  0
 11  7  1  0
 15 10  1  0
  1 19  1  0
  1 20  1  0
  2 21  1  0
  3 22  1  0
  4 23  1  0
  5 24  1  0
  8 25  1  0
 13 26  1  0
 16 27  1  0
 16 28  1  0
 17 29  1  0
 18 30  1  0
M  RAD  1   1   2
M  END
$$$$

     RDKit          3D

 30 32  0  0  0  0  0  0  0  0999 V2000
  -12.5647   13.6179  -21.7726 C   0  0  0  0  0  3  0  0  0  0  0  0
  -12.2138   13.3784  -23.2002 C   0  0  0  0  0  0  0  0  0  0  0  0
  -12.4989   14.6051  -24.0794 C   0  0  0  0  0  0  0  0  0  0  0  0
  -12.2615   13.9296  -25.4384 C   0  0  0  0  0  0  0  0  0  0  0  0
  -12.9727   12.6018  -25.1610 C   0  0  0  0  0  0  0  0  0  0  0  0
  -12.9877   12.4247  -23.8040 O   0  0  0  0  0  0  0  0  0  0  0  0
  -12.3812   11.5208  -25.8781 N   0  0  0  0  0  0  0  0  0  0  0  0
  -12.5250   11.2524  -27.1808 C   0  0  0  0  0  0  0  0  0  0  0  0
  -11.8164   10.1485  -27.5082 N   0  0  0  0  0  0  0  0  0  0  0  0
  -11.2075    9.6999  -26.3991 C   0  0  0  0  0  0  0  0  0  0  0  0
  -11.5727   10.5778  -25.3713 C   0  0  0  0  0  0  0  0  0  0  0  0
  -11.0748   10.3244  -24.1490 N   0  0  0  0  0  0  0  0  0  0  0  0
  -10.2625    9.2937  -23.8717 C   0  0  0  0  0  0  0  0  0  0  0  0
   -9.9152    8.4597  -24.8465 N   0  0  0  0  0  0  0  0  0  0  0  0
  -10.3782    8.6581  -26.0869 C   0  0  0  0  0  0  0  0  0  0  0  0
   -9.9985    7.7592  -27.1169 N   0  0  0  0  0  0  0  0  0  0  0  0
  -10.8978   13.7471  -25.5517 O   0  0  0  0  0  0  0  0  0  0  0  0
  -11.5979   15.6090  -23.8401 O   0  0  0  0  0  0  0  0  0  0  0  0
  -11.9566   12.8975  -21.1545 H   0  0  0  0  0  0  0  0  0  0  0  0
  -12.2836   14.6213  -21.4085 H   0  0  0  0  0  0  0  0  0  0  0  0
  -11.1361   13.1463  -23.3711 H   0  0  0  0  0  0  0  0  0  0  0  0
  -13.5504   14.8968  -24.0305 H   0  0  0  0  0  0  0  0  0  0  0  0
  -12.7135   14.4775  -26.2604 H   0  0  0  0  0  0  0  0  0  0  0  0
  -14.0425   12.7924  -25.4736 H   0  0  0  0  0  0  0  0  0  0  0  0
  -13.1055   11.8097  -27.8777 H   0  0  0  0  0  0  0  0  0  0  0  0
   -9.9338    9.2086  -22.8363 H   0  0  0  0  0  0  0  0  0  0  0  0
  -10.6336    6.9580  -27.3199 H   0  0  0  0  0  0  0  0  0  0  0  0
   -9.1054    7.9501  -27.6132 H   0  0  0  0  0  0  0  0  0  0  0  0
  -10.6297   12.8243  -25.7453 H   0  0  0  0  0  0  0  0  0  0  0  0
  -12.0435   16.4777  -23.9938 H   0  0  0  0  0  0  0  0  0  0  0  0
  1  2  1  0
  2  3  1  0
  3  4  1  0
  4  5  1  0
  5  6  1  0
  5  7  1  0
  7  8  1  0
  8  9  2  0
  9 10  1  0
 10 11  2  0
 11 12  1  0
 12 13  2  0
 13 14  1  0
 14 15  2  0
 15 16  1  0
  4 17  1  0
  3 18  1  0
  6  2  1  0
 11  7  1  0
 15 10  1  0
  1 19  1  0
  1 20  1  0
  2 21  1  0
  3 22  1  0
  4 23  1  0
  5 24  1  0
  8 25  1  0
 13 26  1  0
 16 27  1  0
 16 28  1  0
 17 29  1  0
 18 30  1  0
M  RAD  1   1   2
M  END
$$$$

     RDKit          3D

 30 32  0  0  0  0  0  0  0  0999 V2000
  -13.5796   13.4664  -22.2612 C   0  0  0  0  0  3  0  0  0  0  0  0
  -12.2158   13.6794  -22.9288 C   0  0  0  0  0  0  0  0  0  0  0  0
  -12.2922   14.7910  -23.9374 C   0  0  0  0  0  0  0  0  0  0  0  0
  -11.6735   14.1970  -25.1949 C   0  0  0  0  0  0  0  0  0  0  0  0
  -11.1095   12.9158  -24.7029 C   0  0  0  0  0  0  0  0  0  0  0  0
  -11.9349   12.5360  -23.6392 O   0  0  0  0  0  0  0  0  0  0  0  0
  -11.1075   11.8403  -25.6500 N   0  0  0  0  0  0  0  0  0  0  0  0
  -11.1848   11.8048  -26.9675 C   0  0  0  0  0  0  0  0  0  0  0  0
  -11.1433   10.5452  -27.4273 N   0  0  0  0  0  0  0  0  0  0  0  0
  -11.0346    9.7432  -26.3518 C   0  0  0  0  0  0  0  0  0  0  0  0
  -11.0117   10.5459  -25.2391 C   0  0  0  0  0  0  0  0  0  0  0  0
  -10.9066    9.9744  -24.0136 N   0  0  0  0  0  0  0  0  0  0  0  0
  -10.8303    8.6333  -23.9677 C   0  0  0  0  0  0  0  0  0  0  0  0
  -10.8508    7.8309  -25.0403 N   0  0  0  0  0  0  0  0  0  0  0  0
  -10.9538    8.3644  -26.2666 C   0  0  0  0  0  0  0  0  0  0  0  0
  -10.9777    7.5414  -27.4143 N   0  0  0  0  0  0  0  0  0  0  0  0
  -12.6873   14.0703  -26.1218 O   0  0  0  0  0  0  0  0  0  0  0  0
  -13.6330   15.1282  -24.1316 O   0  0  0  0  0  0  0  0  0  0  0  0
  -14.1604   14.4195  -22.2842 H   0  0  0  0  0  0  0  0  0  0  0  0
  -14.1673   12.7027  -22.8493 H   0  0  0  0  0  0  0  0  0  0  0  0
  -11.4438   13.8482  -22.1490 H   0  0  0  0  0  0  0  0  0  0  0  0
  -11.7578   15.7073  -23.6221 H   0  0  0  0  0  0  0  0  0  0  0  0
  -10.8701   14.8718  -25.5668 H   0  0  0  0  0  0  0  0  0  0  0  0
  -10.1039   13.0956  -24.2693 H   0  0  0  0  0  0  0  0  0  0  0  0
  -11.2704   12.6665  -27.6049 H   0  0  0  0  0  0  0  0  0  0  0  0
  -10.7456    8.1865  -22.9690 H   0  0  0  0  0  0  0  0  0  0  0  0
  -10.0944    7.3135  -27.8928 H   0  0  0  0  0  0  0  0  0  0  0  0
  -11.8718    7.1771  -27.7630 H   0  0  0  0  0  0  0  0  0  0  0  0
  -12.5218   14.7063  -26.8798 H   0  0  0  0  0  0  0  0  0  0  0  0
  -14.0161   14.5086  -24.7916 H   0  0  0  0  0  0  0  0  0  0  0  0
  1  2  1  0
  2  3  1  0
  3  4  1  0
  4  5  1  0
  5  6  1  0
  5  7  1  0
  7  8  1  0
  8  9  2  0
  9 10  1  0
 10 11  2  0
 11 12  1  0
 12 13  2  0
 13 14  1  0
 14 15  2  0
 15 16  1  0
  4 17  1  0
  3 18  1  0
  6  2  1  0
 11  7  1  0
 15 10  1  0
  1 19  1  0
  1 20  1  0
  2 21  1  0
  3 22  1  0
  4 23  1  0
  5 24  1  0
  8 25  1  0
 13 26  1  0
 16 27  1  0
 16 28  1  0
 17 29  1  0
 18 30  1  0
M  RAD  1   1   2
M  END
$$$$

     RDKit          3D

 30 32  0  0  0  0  0  0  0  0999 V2000
  -10.7400   14.9049  -23.4517 C   0  0  0  0  0  3  0  0  0  0  0  0
  -11.6762   14.8418  -24.6266 C   0  0  0  0  0  0  0  0  0  0  0  0
  -13.1159   14.6510  -24.1756 C   0  0  0  0  0  0  0  0  0  0  0  0
  -13.3456   13.1556  -24.3153 C   0  0  0  0  0  0  0  0  0  0  0  0
  -11.9570   12.6714  -24.6673 C   0  0  0  0  0  0  0  0  0  0  0  0
  -11.3680   13.7134  -25.3842 O   0  0  0  0  0  0  0  0  0  0  0  0
  -11.9503   11.4964  -25.4793 N   0  0  0  0  0  0  0  0  0  0  0  0
  -12.7528   11.1506  -26.5047 C   0  0  0  0  0  0  0  0  0  0  0  0
  -12.3845    9.9492  -26.9816 N   0  0  0  0  0  0  0  0  0  0  0  0
  -11.3392    9.4943  -26.2767 C   0  0  0  0  0  0  0  0  0  0  0  0
  -11.0771   10.4729  -25.3388 C   0  0  0  0  0  0  0  0  0  0  0  0
  -10.0535   10.2865  -24.4680 N   0  0  0  0  0  0  0  0  0  0  0  0
   -9.3222    9.1806  -24.5236 C   0  0  0  0  0  0  0  0  0  0  0  0
   -9.5753    8.2219  -25.4390 N   0  0  0  0  0  0  0  0  0  0  0  0
  -10.5790    8.3417  -26.3366 C   0  0  0  0  0  0  0  0  0  0  0  0
  -10.8473    7.3242  -27.3076 N   0  0  0  0  0  0  0  0  0  0  0  0
  -13.7992   12.6651  -23.1117 O   0  0  0  0  0  0  0  0  0  0  0  0
  -13.2439   15.0864  -22.8678 O   0  0  0  0  0  0  0  0  0  0  0  0
   -9.9029   14.1833  -23.5358 H   0  0  0  0  0  0  0  0  0  0  0  0
  -10.3576   15.9335  -23.2817 H   0  0  0  0  0  0  0  0  0  0  0  0
  -11.5455   15.7278  -25.2668 H   0  0  0  0  0  0  0  0  0  0  0  0
  -13.7609   15.1574  -24.8924 H   0  0  0  0  0  0  0  0  0  0  0  0
  -14.0856   12.9179  -25.1078 H   0  0  0  0  0  0  0  0  0  0  0  0
  -11.4243   12.4853  -23.7114 H   0  0  0  0  0  0  0  0  0  0  0  0
  -13.5631   11.8056  -26.8404 H   0  0  0  0  0  0  0  0  0  0  0  0
   -8.5038    9.0706  -23.8002 H   0  0  0  0  0  0  0  0  0  0  0  0
  -10.6062    6.3447  -27.0942 H   0  0  0  0  0  0  0  0  0  0  0  0
  -11.2834    7.6282  -28.2049 H   0  0  0  0  0  0  0  0  0  0  0  0
  -13.6269   11.6908  -23.0447 H   0  0  0  0  0  0  0  0  0  0  0  0
  -14.0207   14.6337  -22.4518 H   0  0  0  0  0  0  0  0  0  0  0  0
  1  2  1  0
  2  3  1  0
  3  4  1  0
  4  5  1  0
  5  6  1  0
  5  7  1  0
  7  8  1  0
  8  9  2  0
  9 10  1  0
 10 11  2  0
 11 12  1  0
 12 13  2  0
 13 14  1  0
 14 15  2  0
 15 16  1  0
  4 17  1  0
  3 18  1  0
  6  2  1  0
 11  7  1  0
 15 10  1  0
  1 19  1  0
  1 20  1  0
  2 21  1  0
  3 22  1  0
  4 23  1  0
  5 24  1  0
  8 25  1  0
 13 26  1  0
 16 27  1  0
 16 28  1  0
 17 29  1  0
 18 30  1  0
M  RAD  1   1   2
M  END
$$$$

     RDKit          3D

 30 32  0  0  0  0  0  0  0  0999 V2000
  -14.0589   14.7461  -24.4679 C   0  0  0  0  0  3  0  0  0  0  0  0
  -12.5896   14.7053  -24.8394 C   0  0  0  0  0  0  0  0  0  0  0  0
  -11.7294   14.4029  -23.6165 C   0  0  0  0  0  0  0  0  0  0  0  0
  -11.7830   12.8740  -23.5309 C   0  0  0  0  0  0  0  0  0  0  0  0
  -12.7509   12.5639  -24.6584 C   0  0  0  0  0  0  0  0  0  0  0  0
  -12.4168   13.5240  -25.5891 O   0  0  0  0  0  0  0  0  0  0  0  0
  -12.5126   11.2181  -25.1016 N   0  0  0  0  0  0  0  0  0  0  0  0
  -13.3898   10.2034  -25.1932 C   0  0  0  0  0  0  0  0  0  0  0  0
  -12.7955    9.0877  -25.6517 N   0  0  0  0  0  0  0  0  0  0  0  0
  -11.5171    9.4161  -25.8503 C   0  0  0  0  0  0  0  0  0  0  0  0
  -11.3139   10.7383  -25.5152 C   0  0  0  0  0  0  0  0  0  0  0  0
  -10.0862   11.2554  -25.6477 N   0  0  0  0  0  0  0  0  0  0  0  0
   -9.0583   10.5160  -26.0970 C   0  0  0  0  0  0  0  0  0  0  0  0
   -9.2742    9.2280  -26.4192 N   0  0  0  0  0  0  0  0  0  0  0  0
  -10.4712    8.6235  -26.3190 C   0  0  0  0  0  0  0  0  0  0  0  0
  -10.6995    7.2682  -26.6579 N   0  0  0  0  0  0  0  0  0  0  0  0
  -12.2587   12.4508  -22.2996 O   0  0  0  0  0  0  0  0  0  0  0  0
  -10.4214   14.7862  -23.8015 O   0  0  0  0  0  0  0  0  0  0  0  0
  -14.2013   14.8423  -23.3820 H   0  0  0  0  0  0  0  0  0  0  0  0
  -14.6304   15.4908  -25.0165 H   0  0  0  0  0  0  0  0  0  0  0  0
  -12.2584   15.5837  -25.3896 H   0  0  0  0  0  0  0  0  0  0  0  0
  -12.2036   14.8122  -22.7103 H   0  0  0  0  0  0  0  0  0  0  0  0
  -10.7993   12.4357  -23.7068 H   0  0  0  0  0  0  0  0  0  0  0  0
  -13.7919   12.6457  -24.2920 H   0  0  0  0  0  0  0  0  0  0  0  0
  -14.4427   10.3380  -24.9128 H   0  0  0  0  0  0  0  0  0  0  0  0
   -8.0584   10.9695  -26.1955 H   0  0  0  0  0  0  0  0  0  0  0  0
  -11.2481    6.6554  -26.0622 H   0  0  0  0  0  0  0  0  0  0  0  0
  -10.2890    6.9097  -27.5391 H   0  0  0  0  0  0  0  0  0  0  0  0
  -13.2350   12.4885  -22.2148 H   0  0  0  0  0  0  0  0  0  0  0  0
  -10.4397   15.5739  -24.4260 H   0  0  0  0  0  0  0  0  0  0  0  0
  1  2  1  0
  2  3  1  0
  3  4  1  0
  4  5  1  0
  5  6  1  0
  5  7  1  0
  7  8  1  0
  8  9  2  0
  9 10  1  0
 10 11  2  0
 11 12  1  0
 12 13  2  0
 13 14  1  0
 14 15  2  0
 15 16  1  0
  4 17  1  0
  3 18  1  0
  6  2  1  0
 11  7  1  0
 15 10  1  0
  1 19  1  0
  1 20  1  0
  2 21  1  0
  3 22  1  0
  4 23  1  0
  5 24  1  0
  8 25  1  0
 13 26  1  0
 16 27  1  0
 16 28  1  0
 17 29  1  0
 18 30  1  0
M  RAD  1   1   2
M  END
$$$$

     RDKit          3D

 30 32  0  0  0  0  0  0  0  0999 V2000
  -14.2474   15.4233  -24.2593 C   0  0  0  0  0  3  0  0  0  0  0  0
  -12.9849   14.6882  -24.6332 C   0  0  0  0  0  0  0  0  0  0  0  0
  -12.1121   14.4134  -23.4280 C   0  0  0  0  0  0  0  0  0  0  0  0
  -11.4700   13.0886  -23.8092 C   0  0  0  0  0  0  0  0  0  0  0  0
  -11.9598   12.8694  -25.2212 C   0  0  0  0  0  0  0  0  0  0  0  0
  -13.2344   13.4333  -25.1664 O   0  0  0  0  0  0  0  0  0  0  0  0
  -12.0254   11.4680  -25.5747 N   0  0  0  0  0  0  0  0  0  0  0  0
  -13.1584   10.8221  -25.9071 C   0  0  0  0  0  0  0  0  0  0  0  0
  -12.8126    9.5665  -26.1617 N   0  0  0  0  0  0  0  0  0  0  0  0
  -11.4782    9.4150  -25.9937 C   0  0  0  0  0  0  0  0  0  0  0  0
  -10.9684   10.6479  -25.6132 C   0  0  0  0  0  0  0  0  0  0  0  0
   -9.6434   10.7437  -25.3861 N   0  0  0  0  0  0  0  0  0  0  0  0
   -8.8586    9.6556  -25.5321 C   0  0  0  0  0  0  0  0  0  0  0  0
   -9.3255    8.4541  -25.8983 N   0  0  0  0  0  0  0  0  0  0  0  0
  -10.6475    8.3105  -26.1366 C   0  0  0  0  0  0  0  0  0  0  0  0
  -11.2384    7.0835  -26.5281 N   0  0  0  0  0  0  0  0  0  0  0  0
  -10.0978   13.2432  -23.7413 O   0  0  0  0  0  0  0  0  0  0  0  0
  -12.8645   14.2817  -22.2660 O   0  0  0  0  0  0  0  0  0  0  0  0
  -14.5824   15.9557  -25.1946 H   0  0  0  0  0  0  0  0  0  0  0  0
  -15.0219   14.6529  -24.0449 H   0  0  0  0  0  0  0  0  0  0  0  0
  -12.3813   15.2846  -25.3688 H   0  0  0  0  0  0  0  0  0  0  0  0
  -11.3591   15.2158  -23.2878 H   0  0  0  0  0  0  0  0  0  0  0  0
  -11.8691   12.3198  -23.1344 H   0  0  0  0  0  0  0  0  0  0  0  0
  -11.3185   13.4148  -25.9493 H   0  0  0  0  0  0  0  0  0  0  0  0
  -14.1744   11.2165  -25.9666 H   0  0  0  0  0  0  0  0  0  0  0  0
   -7.7942    9.7785  -25.3384 H   0  0  0  0  0  0  0  0  0  0  0  0
  -11.1395    6.6544  -27.4717 H   0  0  0  0  0  0  0  0  0  0  0  0
  -11.8176    6.5583  -25.8346 H   0  0  0  0  0  0  0  0  0  0  0  0
   -9.8883   13.5091  -22.8037 H   0  0  0  0  0  0  0  0  0  0  0  0
  -13.8107   14.5401  -22.3944 H   0  0  0  0  0  0  0  0  0  0  0  0
  1  2  1  0
  2  3  1  0
  3  4  1  0
  4  5  1  0
  5  6  1  0
  5  7  1  0
  7  8  1  0
  8  9  2  0
  9 10  1  0
 10 11  2  0
 11 12  1  0
 12 13  2  0
 13 14  1  0
 14 15  2  0
 15 16  1  0
  4 17  1  0
  3 18  1  0
  6  2  1  0
 11  7  1  0
 15 10  1  0
  1 19  1  0
  1 20  1  0
  2 21  1  0
  3 22  1  0
  4 23  1  0
  5 24  1  0
  8 25  1  0
 13 26  1  0
 16 27  1  0
 16 28  1  0
 17 29  1  0
 18 30  1  0
M  RAD  1   1   2
M  END
$$$$

     RDKit          3D

 30 32  0  0  0  0  0  0  0  0999 V2000
  -11.2556   15.0873  -22.8484 C   0  0  0  0  0  3  0  0  0  0  0  0
  -11.3733   14.5371  -24.2590 C   0  0  0  0  0  0  0  0  0  0  0  0
  -12.7867   14.6042  -24.7797 C   0  0  0  0  0  0  0  0  0  0  0  0
  -13.3205   13.2476  -24.4717 C   0  0  0  0  0  0  0  0  0  0  0  0
  -12.1032   12.4222  -24.2664 C   0  0  0  0  0  0  0  0  0  0  0  0
  -10.9973   13.2182  -24.2331 O   0  0  0  0  0  0  0  0  0  0  0  0
  -11.9191   11.4311  -25.3143 N   0  0  0  0  0  0  0  0  0  0  0  0
  -12.4212   11.3871  -26.5544 C   0  0  0  0  0  0  0  0  0  0  0  0
  -11.9908   10.2829  -27.1948 N   0  0  0  0  0  0  0  0  0  0  0  0
  -11.1996    9.5961  -26.3689 C   0  0  0  0  0  0  0  0  0  0  0  0
  -11.1548   10.3168  -25.1891 C   0  0  0  0  0  0  0  0  0  0  0  0
  -10.4081    9.8261  -24.1745 N   0  0  0  0  0  0  0  0  0  0  0  0
   -9.7432    8.6693  -24.3451 C   0  0  0  0  0  0  0  0  0  0  0  0
   -9.7887    7.9639  -25.5036 N   0  0  0  0  0  0  0  0  0  0  0  0
  -10.5171    8.4100  -26.5418 C   0  0  0  0  0  0  0  0  0  0  0  0
  -10.5384    7.6443  -27.7338 N   0  0  0  0  0  0  0  0  0  0  0  0
  -14.0923   13.3461  -23.3071 O   0  0  0  0  0  0  0  0  0  0  0  0
  -13.5170   15.6176  -24.1701 O   0  0  0  0  0  0  0  0  0  0  0  0
  -12.2247   15.1234  -22.3234 H   0  0  0  0  0  0  0  0  0  0  0  0
  -10.5592   14.4435  -22.2578 H   0  0  0  0  0  0  0  0  0  0  0  0
  -10.7297   15.0933  -24.9717 H   0  0  0  0  0  0  0  0  0  0  0  0
  -12.7826   14.8239  -25.8680 H   0  0  0  0  0  0  0  0  0  0  0  0
  -14.0061   12.8618  -25.2571 H   0  0  0  0  0  0  0  0  0  0  0  0
  -12.1952   11.9280  -23.2619 H   0  0  0  0  0  0  0  0  0  0  0  0
  -13.0869   12.1671  -26.9475 H   0  0  0  0  0  0  0  0  0  0  0  0
   -9.1380    8.2535  -23.5499 H   0  0  0  0  0  0  0  0  0  0  0  0
   -9.7241    7.5872  -28.3697 H   0  0  0  0  0  0  0  0  0  0  0  0
  -11.3981    7.1181  -27.9864 H   0  0  0  0  0  0  0  0  0  0  0  0
  -13.6441   12.8116  -22.6025 H   0  0  0  0  0  0  0  0  0  0  0  0
  -12.9467   16.3384  -23.7946 H   0  0  0  0  0  0  0  0  0  0  0  0
  1  2  1  0
  2  3  1  0
  3  4  1  0
  4  5  1  0
  5  6  1  0
  5  7  1  0
  7  8  1  0
  8  9  2  0
  9 10  1  0
 10 11  2  0
 11 12  1  0
 12 13  2  0
 13 14  1  0
 14 15  2  0
 15 16  1  0
  4 17  1  0
  3 18  1  0
  6  2  1  0
 11  7  1  0
 15 10  1  0
  1 19  1  0
  1 20  1  0
  2 21  1  0
  3 22  1  0
  4 23  1  0
  5 24  1  0
  8 25  1  0
 13 26  1  0
 16 27  1  0
 16 28  1  0
 17 29  1  0
 18 30  1  0
M  RAD  1   1   2
M  END
$$$$

     RDKit          3D

 30 32  0  0  0  0  0  0  0  0999 V2000
  -14.2222   14.6248  -22.9122 C   0  0  0  0  0  3  0  0  0  0  0  0
  -13.3281   14.3761  -24.1093 C   0  0  0  0  0  0  0  0  0  0  0  0
  -11.8847   14.5421  -23.6946 C   0  0  0  0  0  0  0  0  0  0  0  0
  -11.2635   13.2462  -24.2150 C   0  0  0  0  0  0  0  0  0  0  0  0
  -12.3101   12.8011  -25.1667 C   0  0  0  0  0  0  0  0  0  0  0  0
  -13.4883   13.0353  -24.4638 O   0  0  0  0  0  0  0  0  0  0  0  0
  -12.1889   11.4593  -25.6422 N   0  0  0  0  0  0  0  0  0  0  0  0
  -13.1889   10.7828  -26.2407 C   0  0  0  0  0  0  0  0  0  0  0  0
  -12.7356    9.5501  -26.5619 N   0  0  0  0  0  0  0  0  0  0  0  0
  -11.4564    9.4285  -26.1763 C   0  0  0  0  0  0  0  0  0  0  0  0
  -11.1384   10.6483  -25.5992 C   0  0  0  0  0  0  0  0  0  0  0  0
   -9.9114   10.8511  -25.1064 N   0  0  0  0  0  0  0  0  0  0  0  0
   -8.9846    9.8675  -25.1717 C   0  0  0  0  0  0  0  0  0  0  0  0
   -9.2835    8.6800  -25.7298 N   0  0  0  0  0  0  0  0  0  0  0  0
  -10.5061    8.4232  -26.2420 C   0  0  0  0  0  0  0  0  0  0  0  0
  -10.8599    7.1991  -26.8327 N   0  0  0  0  0  0  0  0  0  0  0  0
  -11.0851   12.4348  -23.1193 O   0  0  0  0  0  0  0  0  0  0  0  0
  -11.2914   15.6576  -24.2721 O   0  0  0  0  0  0  0  0  0  0  0  0
  -15.2471   14.2484  -23.1329 H   0  0  0  0  0  0  0  0  0  0  0  0
  -13.7841   14.1615  -22.0031 H   0  0  0  0  0  0  0  0  0  0  0  0
  -13.6197   15.0702  -24.9263 H   0  0  0  0  0  0  0  0  0  0  0  0
  -11.8090   14.6272  -22.6011 H   0  0  0  0  0  0  0  0  0  0  0  0
  -10.3063   13.5394  -24.6995 H   0  0  0  0  0  0  0  0  0  0  0  0
  -12.3084   13.5061  -26.0259 H   0  0  0  0  0  0  0  0  0  0  0  0
  -14.2014   11.1131  -26.4559 H   0  0  0  0  0  0  0  0  0  0  0  0
   -7.9799   10.0037  -24.7796 H   0  0  0  0  0  0  0  0  0  0  0  0
  -11.7402    6.6761  -26.6279 H   0  0  0  0  0  0  0  0  0  0  0  0
  -10.2134    6.7633  -27.5274 H   0  0  0  0  0  0  0  0  0  0  0  0
  -10.7139   12.8757  -22.3387 H   0  0  0  0  0  0  0  0  0  0  0  0
  -10.4301   15.8007  -23.7723 H   0  0  0  0  0  0  0  0  0  0  0  0
  1  2  1  0
  2  3  1  0
  3  4  1  0
  4  5  1  0
  5  6  1  0
  5  7  1  0
  7  8  1  0
  8  9  2  0
  9 10  1  0
 10 11  2  0
 11 12  1  0
 12 13  2  0
 13 14  1  0
 14 15  2  0
 15 16  1  0
  4 17  1  0
  3 18  1  0
  6  2  1  0
 11  7  1  0
 15 10  1  0
  1 19  1  0
  1 20  1  0
  2 21  1  0
  3 22  1  0
  4 23  1  0
  5 24  1  0
  8 25  1  0
 13 26  1  0
 16 27  1  0
 16 28  1  0
 17 29  1  0
 18 30  1  0
M  RAD  1   1   2
M  END
$$$$

     RDKit          3D

 30 32  0  0  0  0  0  0  0  0999 V2000
  -13.4939   13.7785  -21.8775 C   0  0  0  0  0  3  0  0  0  0  0  0
  -13.1030   13.7287  -23.3066 C   0  0  0  0  0  0  0  0  0  0  0  0
  -11.8033   14.4275  -23.6163 C   0  0  0  0  0  0  0  0  0  0  0  0
  -11.3430   13.7059  -24.8766 C   0  0  0  0  0  0  0  0  0  0  0  0
  -12.4643   12.7244  -25.0871 C   0  0  0  0  0  0  0  0  0  0  0  0
  -12.8108   12.4170  -23.7500 O   0  0  0  0  0  0  0  0  0  0  0  0
  -12.0818   11.5657  -25.8225 N   0  0  0  0  0  0  0  0  0  0  0  0
  -12.3725   11.3323  -27.1152 C   0  0  0  0  0  0  0  0  0  0  0  0
  -11.8461   10.1379  -27.4624 N   0  0  0  0  0  0  0  0  0  0  0  0
  -11.2165    9.5952  -26.4048 C   0  0  0  0  0  0  0  0  0  0  0  0
  -11.3759   10.5124  -25.3761 C   0  0  0  0  0  0  0  0  0  0  0  0
  -10.8289   10.2014  -24.1907 N   0  0  0  0  0  0  0  0  0  0  0  0
  -10.1579    9.0697  -23.9834 C   0  0  0  0  0  0  0  0  0  0  0  0
  -10.0119    8.1912  -24.9891 N   0  0  0  0  0  0  0  0  0  0  0  0
  -10.5215    8.4055  -26.2191 C   0  0  0  0  0  0  0  0  0  0  0  0
  -10.3800    7.4963  -27.2899 N   0  0  0  0  0  0  0  0  0  0  0  0
  -11.2587   14.5621  -25.9638 O   0  0  0  0  0  0  0  0  0  0  0  0
  -12.0573   15.7564  -23.9249 O   0  0  0  0  0  0  0  0  0  0  0  0
  -13.1549   12.8968  -21.2896 H   0  0  0  0  0  0  0  0  0  0  0  0
  -14.6213   13.7634  -21.8333 H   0  0  0  0  0  0  0  0  0  0  0  0
  -13.8628   14.1119  -24.0157 H   0  0  0  0  0  0  0  0  0  0  0  0
  -11.0594   14.3147  -22.8066 H   0  0  0  0  0  0  0  0  0  0  0  0
  -10.3923   13.1594  -24.7085 H   0  0  0  0  0  0  0  0  0  0  0  0
  -13.3329   13.2572  -25.5003 H   0  0  0  0  0  0  0  0  0  0  0  0
  -12.9249   11.9501  -27.8077 H   0  0  0  0  0  0  0  0  0  0  0  0
   -9.7385    8.8620  -23.0231 H   0  0  0  0  0  0  0  0  0  0  0  0
  -11.1272    7.2317  -27.9581 H   0  0  0  0  0  0  0  0  0  0  0  0
   -9.4447    7.0486  -27.4258 H   0  0  0  0  0  0  0  0  0  0  0  0
  -12.1154   14.7055  -26.4247 H   0  0  0  0  0  0  0  0  0  0  0  0
  -12.9633   16.0274  -23.6721 H   0  0  0  0  0  0  0  0  0  0  0  0
  1  2  1  0
  2  3  1  0
  3  4  1  0
  4  5  1  0
  5  6  1  0
  5  7  1  0
  7  8  1  0
  8  9  2  0
  9 10  1  0
 10 11  2  0
 11 12  1  0
 12 13  2  0
 13 14  1  0
 14 15  2  0
 15 16  1  0
  4 17  1  0
  3 18  1  0
  6  2  1  0
 11  7  1  0
 15 10  1  0
  1 19  1  0
  1 20  1  0
  2 21  1  0
  3 22  1  0
  4 23  1  0
  5 24  1  0
  8 25  1  0
 13 26  1  0
 16 27  1  0
 16 28  1  0
 17 29  1  0
 18 30  1  0
M  RAD  1   1   2
M  END
$$$$

     RDKit          3D

 30 32  0  0  0  0  0  0  0  0999 V2000
  -12.4985   13.4093  -21.6249 C   0  0  0  0  0  3  0  0  0  0  0  0
  -12.7957   13.5567  -23.1003 C   0  0  0  0  0  0  0  0  0  0  0  0
  -11.8896   14.5538  -23.7633 C   0  0  0  0  0  0  0  0  0  0  0  0
  -11.4875   13.8512  -25.0473 C   0  0  0  0  0  0  0  0  0  0  0  0
  -12.4963   12.7237  -25.1229 C   0  0  0  0  0  0  0  0  0  0  0  0
  -12.6156   12.3562  -23.7814 O   0  0  0  0  0  0  0  0  0  0  0  0
  -12.0159   11.6029  -25.8909 N   0  0  0  0  0  0  0  0  0  0  0  0
  -12.0285   11.4530  -27.2269 C   0  0  0  0  0  0  0  0  0  0  0  0
  -11.4909   10.2670  -27.5712 N   0  0  0  0  0  0  0  0  0  0  0  0
  -11.1344    9.6618  -26.4278 C   0  0  0  0  0  0  0  0  0  0  0  0
  -11.4527   10.4781  -25.3610 C   0  0  0  0  0  0  0  0  0  0  0  0
  -11.2116   10.1351  -24.0852 N   0  0  0  0  0  0  0  0  0  0  0  0
  -10.6370    8.9475  -23.8452 C   0  0  0  0  0  0  0  0  0  0  0  0
  -10.3240    8.1467  -24.8803 N   0  0  0  0  0  0  0  0  0  0  0  0
  -10.5431    8.4420  -26.1640 C   0  0  0  0  0  0  0  0  0  0  0  0
  -10.1974    7.5680  -27.2264 N   0  0  0  0  0  0  0  0  0  0  0  0
  -11.6409   14.7676  -26.0852 O   0  0  0  0  0  0  0  0  0  0  0  0
  -12.6675   15.6872  -24.0518 O   0  0  0  0  0  0  0  0  0  0  0  0
  -12.6983   12.3542  -21.3477 H   0  0  0  0  0  0  0  0  0  0  0  0
  -11.4824   13.7191  -21.3527 H   0  0  0  0  0  0  0  0  0  0  0  0
  -13.8790   13.8223  -23.2245 H   0  0  0  0  0  0  0  0  0  0  0  0
  -11.0486   14.7613  -23.1065 H   0  0  0  0  0  0  0  0  0  0  0  0
  -10.4494   13.4948  -25.0332 H   0  0  0  0  0  0  0  0  0  0  0  0
  -13.4530   13.1158  -25.4942 H   0  0  0  0  0  0  0  0  0  0  0  0
  -12.4344   12.2263  -27.8931 H   0  0  0  0  0  0  0  0  0  0  0  0
  -10.4216    8.6273  -22.8101 H   0  0  0  0  0  0  0  0  0  0  0  0
  -10.9237    6.8453  -27.4932 H   0  0  0  0  0  0  0  0  0  0  0  0
   -9.2834    7.6096  -27.7383 H   0  0  0  0  0  0  0  0  0  0  0  0
  -12.5226   15.1949  -26.0579 H   0  0  0  0  0  0  0  0  0  0  0  0
  -12.1751   16.5206  -23.9638 H   0  0  0  0  0  0  0  0  0  0  0  0
  1  2  1  0
  2  3  1  0
  3  4  1  0
  4  5  1  0
  5  6  1  0
  5  7  1  0
  7  8  1  0
  8  9  2  0
  9 10  1  0
 10 11  2  0
 11 12  1  0
 12 13  2  0
 13 14  1  0
 14 15  2  0
 15 16  1  0
  4 17  1  0
  3 18  1  0
  6  2  1  0
 11  7  1  0
 15 10  1  0
  1 19  1  0
  1 20  1  0
  2 21  1  0
  3 22  1  0
  4 23  1  0
  5 24  1  0
  8 25  1  0
 13 26  1  0
 16 27  1  0
 16 28  1  0
 17 29  1  0
 18 30  1  0
M  RAD  1   1   2
M  END
$$$$

     RDKit          3D

 30 32  0  0  0  0  0  0  0  0999 V2000
  -12.9875   16.0740  -24.6661 C   0  0  0  0  0  3  0  0  0  0  0  0
  -13.1093   14.5463  -24.7076 C   0  0  0  0  0  0  0  0  0  0  0  0
  -12.7709   13.9881  -23.3671 C   0  0  0  0  0  0  0  0  0  0  0  0
  -11.4686   13.2827  -23.5953 C   0  0  0  0  0  0  0  0  0  0  0  0
  -11.4484   13.0966  -25.0876 C   0  0  0  0  0  0  0  0  0  0  0  0
  -12.3112   13.9849  -25.6540 O   0  0  0  0  0  0  0  0  0  0  0  0
  -11.7242   11.7358  -25.4354 N   0  0  0  0  0  0  0  0  0  0  0  0
  -12.9203   11.2035  -25.6784 C   0  0  0  0  0  0  0  0  0  0  0  0
  -12.8109    9.8974  -25.9754 N   0  0  0  0  0  0  0  0  0  0  0  0
  -11.4908    9.5916  -25.9176 C   0  0  0  0  0  0  0  0  0  0  0  0
  -10.8208   10.7603  -25.5764 C   0  0  0  0  0  0  0  0  0  0  0  0
   -9.4795   10.6729  -25.4650 N   0  0  0  0  0  0  0  0  0  0  0  0
   -8.7877    9.5419  -25.6635 C   0  0  0  0  0  0  0  0  0  0  0  0
   -9.4232    8.4040  -25.9941 N   0  0  0  0  0  0  0  0  0  0  0  0
  -10.7775    8.4308  -26.1210 C   0  0  0  0  0  0  0  0  0  0  0  0
  -11.4661    7.2356  -26.4703 N   0  0  0  0  0  0  0  0  0  0  0  0
  -11.5569   12.0151  -22.9862 O   0  0  0  0  0  0  0  0  0  0  0  0
  -13.7730   13.1466  -22.8950 O   0  0  0  0  0  0  0  0  0  0  0  0
  -13.3099   16.3715  -23.6494 H   0  0  0  0  0  0  0  0  0  0  0  0
  -13.6996   16.5181  -25.3765 H   0  0  0  0  0  0  0  0  0  0  0  0
  -14.1826   14.3320  -24.9850 H   0  0  0  0  0  0  0  0  0  0  0  0
  -12.6350   14.7825  -22.6115 H   0  0  0  0  0  0  0  0  0  0  0  0
  -10.5914   13.8396  -23.2254 H   0  0  0  0  0  0  0  0  0  0  0  0
  -10.4115   13.3654  -25.4303 H   0  0  0  0  0  0  0  0  0  0  0  0
  -13.8505   11.7400  -25.6435 H   0  0  0  0  0  0  0  0  0  0  0  0
   -7.7173    9.5767  -25.5501 H   0  0  0  0  0  0  0  0  0  0  0  0
  -11.3315    6.8700  -27.4294 H   0  0  0  0  0  0  0  0  0  0  0  0
  -12.0615    6.7916  -25.7614 H   0  0  0  0  0  0  0  0  0  0  0  0
  -10.8220   11.9260  -22.3480 H   0  0  0  0  0  0  0  0  0  0  0  0
  -14.4818   13.7394  -22.5051 H   0  0  0  0  0  0  0  0  0  0  0  0
  1  2  1  0
  2  3  1  0
  3  4  1  0
  4  5  1  0
  5  6  1  0
  5  7  1  0
  7  8  1  0
  8  9  2  0
  9 10  1  0
 10 11  2  0
 11 12  1  0
 12 13  2  0
 13 14  1  0
 14 15  2  0
 15 16  1  0
  4 17  1  0
  3 18  1  0
  6  2  1  0
 11  7  1  0
 15 10  1  0
  1 19  1  0
  1 20  1  0
  2 21  1  0
  3 22  1  0
  4 23  1  0
  5 24  1  0
  8 25  1  0
 13 26  1  0
 16 27  1  0
 16 28  1  0
 17 29  1  0
 18 30  1  0
M  RAD  1   1   2
M  END
$$$$

     RDKit          3D

 30 32  0  0  0  0  0  0  0  0999 V2000
  -14.2237   14.0019  -22.7392 C   0  0  0  0  0  3  0  0  0  0  0  0
  -13.3211   14.3737  -23.8967 C   0  0  0  0  0  0  0  0  0  0  0  0
  -11.8647   14.4311  -23.4700 C   0  0  0  0  0  0  0  0  0  0  0  0
  -11.2532   13.2492  -24.2148 C   0  0  0  0  0  0  0  0  0  0  0  0
  -12.5289   12.4210  -24.4098 C   0  0  0  0  0  0  0  0  0  0  0  0
  -13.4044   13.3801  -24.8720 O   0  0  0  0  0  0  0  0  0  0  0  0
  -12.3306   11.3284  -25.3015 N   0  0  0  0  0  0  0  0  0  0  0  0
  -13.0763   10.9201  -26.3384 C   0  0  0  0  0  0  0  0  0  0  0  0
  -12.5091    9.8354  -26.9059 N   0  0  0  0  0  0  0  0  0  0  0  0
  -11.3864    9.5294  -26.2398 C   0  0  0  0  0  0  0  0  0  0  0  0
  -11.2894   10.4752  -25.2372 C   0  0  0  0  0  0  0  0  0  0  0  0
  -10.2263   10.3778  -24.4194 N   0  0  0  0  0  0  0  0  0  0  0  0
   -9.2933    9.4133  -24.5560 C   0  0  0  0  0  0  0  0  0  0  0  0
   -9.4255    8.5103  -25.5473 N   0  0  0  0  0  0  0  0  0  0  0  0
  -10.4545    8.5245  -26.4167 C   0  0  0  0  0  0  0  0  0  0  0  0
  -10.5423    7.5528  -27.4365 N   0  0  0  0  0  0  0  0  0  0  0  0
  -10.7409   13.6599  -25.4429 O   0  0  0  0  0  0  0  0  0  0  0  0
  -11.2565   15.6238  -23.8118 O   0  0  0  0  0  0  0  0  0  0  0  0
  -14.8469   13.1165  -22.9859 H   0  0  0  0  0  0  0  0  0  0  0  0
  -14.9479   14.8405  -22.5829 H   0  0  0  0  0  0  0  0  0  0  0  0
  -13.6406   15.3331  -24.3709 H   0  0  0  0  0  0  0  0  0  0  0  0
  -11.8105   14.2014  -22.3850 H   0  0  0  0  0  0  0  0  0  0  0  0
  -10.5157   12.7114  -23.6002 H   0  0  0  0  0  0  0  0  0  0  0  0
  -12.8455   12.1350  -23.3883 H   0  0  0  0  0  0  0  0  0  0  0  0
  -13.9918   11.4085  -26.6495 H   0  0  0  0  0  0  0  0  0  0  0  0
   -8.4340    9.3469  -23.8831 H   0  0  0  0  0  0  0  0  0  0  0  0
  -10.5735    7.8346  -28.4290 H   0  0  0  0  0  0  0  0  0  0  0  0
  -10.5761    6.5489  -27.1989 H   0  0  0  0  0  0  0  0  0  0  0  0
  -10.5771   14.6383  -25.4633 H   0  0  0  0  0  0  0  0  0  0  0  0
  -11.5776   16.3067  -23.1701 H   0  0  0  0  0  0  0  0  0  0  0  0
  1  2  1  0
  2  3  1  0
  3  4  1  0
  4  5  1  0
  5  6  1  0
  5  7  1  0
  7  8  1  0
  8  9  2  0
  9 10  1  0
 10 11  2  0
 11 12  1  0
 12 13  2  0
 13 14  1  0
 14 15  2  0
 15 16  1  0
  4 17  1  0
  3 18  1  0
  6  2  1  0
 11  7  1  0
 15 10  1  0
  1 19  1  0
  1 20  1  0
  2 21  1  0
  3 22  1  0
  4 23  1  0
  5 24  1  0
  8 25  1  0
 13 26  1  0
 16 27  1  0
 16 28  1  0
 17 29  1  0
 18 30  1  0
M  RAD  1   1   2
M  END
$$$$

     RDKit          3D

 30 32  0  0  0  0  0  0  0  0999 V2000
  -12.0341   13.7691  -21.7007 C   0  0  0  0  0  3  0  0  0  0  0  0
  -12.7259   13.6986  -23.0398 C   0  0  0  0  0  0  0  0  0  0  0  0
  -12.0096   14.5088  -24.0940 C   0  0  0  0  0  0  0  0  0  0  0  0
  -12.5496   13.8841  -25.3637 C   0  0  0  0  0  0  0  0  0  0  0  0
  -12.9190   12.5012  -24.9117 C   0  0  0  0  0  0  0  0  0  0  0  0
  -12.6203   12.4094  -23.5564 O   0  0  0  0  0  0  0  0  0  0  0  0
  -12.2221   11.5251  -25.6995 N   0  0  0  0  0  0  0  0  0  0  0  0
  -12.1195   11.5385  -27.0306 C   0  0  0  0  0  0  0  0  0  0  0  0
  -11.3938   10.4676  -27.4300 N   0  0  0  0  0  0  0  0  0  0  0  0
  -11.0280    9.7641  -26.3643 C   0  0  0  0  0  0  0  0  0  0  0  0
  -11.5623   10.4482  -25.2620 C   0  0  0  0  0  0  0  0  0  0  0  0
  -11.3165    9.9127  -24.0611 N   0  0  0  0  0  0  0  0  0  0  0  0
  -10.5913    8.7704  -23.9008 C   0  0  0  0  0  0  0  0  0  0  0  0
  -10.0743    8.1066  -24.9513 N   0  0  0  0  0  0  0  0  0  0  0  0
  -10.2913    8.6004  -26.1760 C   0  0  0  0  0  0  0  0  0  0  0  0
   -9.7740    7.9494  -27.3292 N   0  0  0  0  0  0  0  0  0  0  0  0
  -11.5940   13.8902  -26.3781 O   0  0  0  0  0  0  0  0  0  0  0  0
  -12.3013   15.8636  -24.0066 O   0  0  0  0  0  0  0  0  0  0  0  0
  -12.4073   14.6163  -21.0918 H   0  0  0  0  0  0  0  0  0  0  0  0
  -10.9292   13.7680  -21.8089 H   0  0  0  0  0  0  0  0  0  0  0  0
  -13.7572   14.0404  -22.9234 H   0  0  0  0  0  0  0  0  0  0  0  0
  -10.9216   14.3062  -24.0793 H   0  0  0  0  0  0  0  0  0  0  0  0
  -13.4784   14.4325  -25.6967 H   0  0  0  0  0  0  0  0  0  0  0  0
  -14.0383   12.3634  -24.9806 H   0  0  0  0  0  0  0  0  0  0  0  0
  -12.5145   12.2434  -27.7583 H   0  0  0  0  0  0  0  0  0  0  0  0
  -10.4587    8.4340  -22.8840 H   0  0  0  0  0  0  0  0  0  0  0  0
   -8.9386    8.3293  -27.8300 H   0  0  0  0  0  0  0  0  0  0  0  0
  -10.1945    7.0783  -27.7240 H   0  0  0  0  0  0  0  0  0  0  0  0
  -11.7368   14.7227  -26.9149 H   0  0  0  0  0  0  0  0  0  0  0  0
  -11.5745   16.3625  -24.4514 H   0  0  0  0  0  0  0  0  0  0  0  0
  1  2  1  0
  2  3  1  0
  3  4  1  0
  4  5  1  0
  5  6  1  0
  5  7  1  0
  7  8  1  0
  8  9  2  0
  9 10  1  0
 10 11  2  0
 11 12  1  0
 12 13  2  0
 13 14  1  0
 14 15  2  0
 15 16  1  0
  4 17  1  0
  3 18  1  0
  6  2  1  0
 11  7  1  0
 15 10  1  0
  1 19  1  0
  1 20  1  0
  2 21  1  0
  3 22  1  0
  4 23  1  0
  5 24  1  0
  8 25  1  0
 13 26  1  0
 16 27  1  0
 16 28  1  0
 17 29  1  0
 18 30  1  0
M  RAD  1   1   2
M  END
$$$$

     RDKit          3D

 30 32  0  0  0  0  0  0  0  0999 V2000
  -13.6384   13.7731  -22.0983 C   0  0  0  0  0  3  0  0  0  0  0  0
  -13.0882   13.8181  -23.4755 C   0  0  0  0  0  0  0  0  0  0  0  0
  -11.5629   13.8611  -23.5119 C   0  0  0  0  0  0  0  0  0  0  0  0
  -11.3370   13.5629  -24.9963 C   0  0  0  0  0  0  0  0  0  0  0  0
  -12.5718   12.8039  -25.3620 C   0  0  0  0  0  0  0  0  0  0  0  0
  -13.3207   12.6416  -24.1850 O   0  0  0  0  0  0  0  0  0  0  0  0
  -12.2422   11.5542  -25.9714 N   0  0  0  0  0  0  0  0  0  0  0  0
  -12.7319   11.0986  -27.1347 C   0  0  0  0  0  0  0  0  0  0  0  0
  -12.1808    9.9079  -27.3495 N   0  0  0  0  0  0  0  0  0  0  0  0
  -11.3480    9.5900  -26.3486 C   0  0  0  0  0  0  0  0  0  0  0  0
  -11.3903   10.6458  -25.4694 C   0  0  0  0  0  0  0  0  0  0  0  0
  -10.6181   10.5543  -24.3597 N   0  0  0  0  0  0  0  0  0  0  0  0
   -9.8381    9.5147  -24.0860 C   0  0  0  0  0  0  0  0  0  0  0  0
   -9.8060    8.4860  -24.9568 N   0  0  0  0  0  0  0  0  0  0  0  0
  -10.5415    8.4864  -26.0914 C   0  0  0  0  0  0  0  0  0  0  0  0
  -10.4876    7.3892  -26.9898 N   0  0  0  0  0  0  0  0  0  0  0  0
  -11.3624   14.8164  -25.6474 O   0  0  0  0  0  0  0  0  0  0  0  0
  -11.0612   15.1039  -23.2224 O   0  0  0  0  0  0  0  0  0  0  0  0
  -13.6050   14.7458  -21.6210 H   0  0  0  0  0  0  0  0  0  0  0  0
  -13.2575   12.9302  -21.5298 H   0  0  0  0  0  0  0  0  0  0  0  0
  -13.5149   14.6507  -24.0654 H   0  0  0  0  0  0  0  0  0  0  0  0
  -11.1675   13.0417  -22.9042 H   0  0  0  0  0  0  0  0  0  0  0  0
  -10.3981   13.0518  -25.1851 H   0  0  0  0  0  0  0  0  0  0  0  0
  -13.2273   13.4160  -26.0382 H   0  0  0  0  0  0  0  0  0  0  0  0
  -13.4498   11.5860  -27.8065 H   0  0  0  0  0  0  0  0  0  0  0  0
   -9.2408    9.4877  -23.1884 H   0  0  0  0  0  0  0  0  0  0  0  0
  -10.4850    6.4322  -26.5848 H   0  0  0  0  0  0  0  0  0  0  0  0
  -10.4531    7.5711  -28.0019 H   0  0  0  0  0  0  0  0  0  0  0  0
  -12.3061   14.9982  -25.9400 H   0  0  0  0  0  0  0  0  0  0  0  0
  -11.6658   15.5533  -22.6066 H   0  0  0  0  0  0  0  0  0  0  0  0
  1  2  1  0
  2  3  1  0
  3  4  1  0
  4  5  1  0
  5  6  1  0
  5  7  1  0
  7  8  1  0
  8  9  2  0
  9 10  1  0
 10 11  2  0
 11 12  1  0
 12 13  2  0
 13 14  1  0
 14 15  2  0
 15 16  1  0
  4 17  1  0
  3 18  1  0
  6  2  1  0
 11  7  1  0
 15 10  1  0
  1 19  1  0
  1 20  1  0
  2 21  1  0
  3 22  1  0
  4 23  1  0
  5 24  1  0
  8 25  1  0
 13 26  1  0
 16 27  1  0
 16 28  1  0
 17 29  1  0
 18 30  1  0
M  RAD  1   1   2
M  END
$$$$

     RDKit          3D

 30 32  0  0  0  0  0  0  0  0999 V2000
  -13.4509   13.3220  -26.0889 C   0  0  0  0  0  3  0  0  0  0  0  0
  -13.1839   13.9470  -24.7280 C   0  0  0  0  0  0  0  0  0  0  0  0
  -11.7566   14.4242  -24.7116 C   0  0  0  0  0  0  0  0  0  0  0  0
  -11.0606   13.3254  -23.9318 C   0  0  0  0  0  0  0  0  0  0  0  0
  -12.1087   12.3150  -23.6506 C   0  0  0  0  0  0  0  0  0  0  0  0
  -13.2995   13.0298  -23.6958 O   0  0  0  0  0  0  0  0  0  0  0  0
  -12.1785   11.2163  -24.5451 N   0  0  0  0  0  0  0  0  0  0  0  0
  -13.3213   10.6495  -24.9691 C   0  0  0  0  0  0  0  0  0  0  0  0
  -13.0405    9.6450  -25.7978 N   0  0  0  0  0  0  0  0  0  0  0  0
  -11.7092    9.5473  -25.9221 C   0  0  0  0  0  0  0  0  0  0  0  0
  -11.1932   10.5476  -25.1236 C   0  0  0  0  0  0  0  0  0  0  0  0
   -9.8696   10.7076  -25.0372 N   0  0  0  0  0  0  0  0  0  0  0  0
   -8.9926    9.9318  -25.6991 C   0  0  0  0  0  0  0  0  0  0  0  0
   -9.5011    8.9590  -26.4755 N   0  0  0  0  0  0  0  0  0  0  0  0
  -10.8303    8.7386  -26.6109 C   0  0  0  0  0  0  0  0  0  0  0  0
  -11.3699    7.7316  -27.4141 N   0  0  0  0  0  0  0  0  0  0  0  0
  -10.6202   13.9094  -22.7382 O   0  0  0  0  0  0  0  0  0  0  0  0
  -11.6403   15.6610  -24.1165 O   0  0  0  0  0  0  0  0  0  0  0  0
  -12.8374   13.8692  -26.8352 H   0  0  0  0  0  0  0  0  0  0  0  0
  -14.5120   13.4594  -26.3884 H   0  0  0  0  0  0  0  0  0  0  0  0
  -13.8738   14.7993  -24.5472 H   0  0  0  0  0  0  0  0  0  0  0  0
  -11.3168   14.4811  -25.7391 H   0  0  0  0  0  0  0  0  0  0  0  0
  -10.1875   12.9948  -24.4750 H   0  0  0  0  0  0  0  0  0  0  0  0
  -11.9937   11.9929  -22.5740 H   0  0  0  0  0  0  0  0  0  0  0  0
  -14.3365   10.9328  -24.7040 H   0  0  0  0  0  0  0  0  0  0  0  0
   -7.9182   10.0515  -25.6373 H   0  0  0  0  0  0  0  0  0  0  0  0
  -11.1874    6.7358  -27.1944 H   0  0  0  0  0  0  0  0  0  0  0  0
  -11.9552    7.9635  -28.2340 H   0  0  0  0  0  0  0  0  0  0  0  0
  -11.1037   13.5034  -21.9806 H   0  0  0  0  0  0  0  0  0  0  0  0
  -11.7510   15.6286  -23.1333 H   0  0  0  0  0  0  0  0  0  0  0  0
  1  2  1  0
  2  3  1  0
  3  4  1  0
  4  5  1  0
  5  6  1  0
  5  7  1  0
  7  8  1  0
  8  9  2  0
  9 10  1  0
 10 11  2  0
 11 12  1  0
 12 13  2  0
 13 14  1  0
 14 15  2  0
 15 16  1  0
  4 17  1  0
  3 18  1  0
  6  2  1  0
 11  7  1  0
 15 10  1  0
  1 19  1  0
  1 20  1  0
  2 21  1  0
  3 22  1  0
  4 23  1  0
  5 24  1  0
  8 25  1  0
 13 26  1  0
 16 27  1  0
 16 28  1  0
 17 29  1  0
 18 30  1  0
M  RAD  1   1   2
M  END
$$$$

     RDKit          3D

 30 32  0  0  0  0  0  0  0  0999 V2000
  -14.1993   14.2128  -22.4140 C   0  0  0  0  0  3  0  0  0  0  0  0
  -12.8736   13.8265  -22.9674 C   0  0  0  0  0  0  0  0  0  0  0  0
  -12.3860   14.7887  -24.0543 C   0  0  0  0  0  0  0  0  0  0  0  0
  -11.2129   14.0005  -24.6008 C   0  0  0  0  0  0  0  0  0  0  0  0
  -11.5814   12.5982  -24.2162 C   0  0  0  0  0  0  0  0  0  0  0  0
  -12.8479   12.6299  -23.6367 O   0  0  0  0  0  0  0  0  0  0  0  0
  -11.5260   11.6524  -25.2725 N   0  0  0  0  0  0  0  0  0  0  0  0
  -11.9038   11.7625  -26.5725 C   0  0  0  0  0  0  0  0  0  0  0  0
  -11.6698   10.6075  -27.2198 N   0  0  0  0  0  0  0  0  0  0  0  0
  -11.1412    9.7579  -26.3299 C   0  0  0  0  0  0  0  0  0  0  0  0
  -11.0523   10.3999  -25.1317 C   0  0  0  0  0  0  0  0  0  0  0  0
  -10.5357    9.7147  -24.0680 N   0  0  0  0  0  0  0  0  0  0  0  0
  -10.1326    8.4616  -24.1984 C   0  0  0  0  0  0  0  0  0  0  0  0
  -10.2270    7.8490  -25.3785 N   0  0  0  0  0  0  0  0  0  0  0  0
  -10.7224    8.4432  -26.4824 C   0  0  0  0  0  0  0  0  0  0  0  0
  -10.8178    7.7814  -27.7322 N   0  0  0  0  0  0  0  0  0  0  0  0
  -10.9786   14.2009  -25.9308 O   0  0  0  0  0  0  0  0  0  0  0  0
  -13.3187   14.9204  -25.0498 O   0  0  0  0  0  0  0  0  0  0  0  0
  -15.0679   13.7840  -22.9327 H   0  0  0  0  0  0  0  0  0  0  0  0
  -14.2462   13.8441  -21.3582 H   0  0  0  0  0  0  0  0  0  0  0  0
  -12.1160   13.7875  -22.1596 H   0  0  0  0  0  0  0  0  0  0  0  0
  -12.0816   15.7419  -23.5852 H   0  0  0  0  0  0  0  0  0  0  0  0
  -10.3126   14.3823  -24.0451 H   0  0  0  0  0  0  0  0  0  0  0  0
  -10.8799   12.2964  -23.4132 H   0  0  0  0  0  0  0  0  0  0  0  0
  -12.3340   12.6529  -27.0286 H   0  0  0  0  0  0  0  0  0  0  0  0
   -9.7275    7.9335  -23.3523 H   0  0  0  0  0  0  0  0  0  0  0  0
  -11.5222    7.0506  -27.8894 H   0  0  0  0  0  0  0  0  0  0  0  0
  -10.1741    8.0259  -28.5131 H   0  0  0  0  0  0  0  0  0  0  0  0
  -10.0378   14.3781  -26.1453 H   0  0  0  0  0  0  0  0  0  0  0  0
  -14.2216   14.6121  -24.8108 H   0  0  0  0  0  0  0  0  0  0  0  0
  1  2  1  0
  2  3  1  0
  3  4  1  0
  4  5  1  0
  5  6  1  0
  5  7  1  0
  7  8  1  0
  8  9  2  0
  9 10  1  0
 10 11  2  0
 11 12  1  0
 12 13  2  0
 13 14  1  0
 14 15  2  0
 15 16  1  0
  4 17  1  0
  3 18  1  0
  6  2  1  0
 11  7  1  0
 15 10  1  0
  1 19  1  0
  1 20  1  0
  2 21  1  0
  3 22  1  0
  4 23  1  0
  5 24  1  0
  8 25  1  0
 13 26  1  0
 16 27  1  0
 16 28  1  0
 17 29  1  0
 18 30  1  0
M  RAD  1   1   2
M  END
$$$$

     RDKit          3D

 30 32  0  0  0  0  0  0  0  0999 V2000
  -14.0447   15.5343  -24.2913 C   0  0  0  0  0  3  0  0  0  0  0  0
  -13.3455   14.2877  -23.8162 C   0  0  0  0  0  0  0  0  0  0  0  0
  -11.8580   14.5270  -23.6594 C   0  0  0  0  0  0  0  0  0  0  0  0
  -11.2582   13.2772  -24.3187 C   0  0  0  0  0  0  0  0  0  0  0  0
  -12.4937   12.3671  -24.2888 C   0  0  0  0  0  0  0  0  0  0  0  0
  -13.4707   13.2365  -24.7385 O   0  0  0  0  0  0  0  0  0  0  0  0
  -12.3154   11.2216  -25.1193 N   0  0  0  0  0  0  0  0  0  0  0  0
  -13.2451   10.6986  -25.9310 C   0  0  0  0  0  0  0  0  0  0  0  0
  -12.6905    9.6154  -26.5513 N   0  0  0  0  0  0  0  0  0  0  0  0
  -11.4277    9.4654  -26.1299 C   0  0  0  0  0  0  0  0  0  0  0  0
  -11.1879   10.4705  -25.2317 C   0  0  0  0  0  0  0  0  0  0  0  0
   -9.9734   10.5186  -24.6740 N   0  0  0  0  0  0  0  0  0  0  0  0
   -8.9897    9.6459  -24.9440 C   0  0  0  0  0  0  0  0  0  0  0  0
   -9.2087    8.6602  -25.8180 N   0  0  0  0  0  0  0  0  0  0  0  0
  -10.4290    8.5571  -26.4216 C   0  0  0  0  0  0  0  0  0  0  0  0
  -10.6931    7.5238  -27.3526 N   0  0  0  0  0  0  0  0  0  0  0  0
  -10.9774   13.5001  -25.6605 O   0  0  0  0  0  0  0  0  0  0  0  0
  -11.5184   14.5011  -22.3092 O   0  0  0  0  0  0  0  0  0  0  0  0
  -14.7299   15.8886  -23.5014 H   0  0  0  0  0  0  0  0  0  0  0  0
  -14.5206   15.3178  -25.2502 H   0  0  0  0  0  0  0  0  0  0  0  0
  -13.7506   13.9045  -22.8510 H   0  0  0  0  0  0  0  0  0  0  0  0
  -11.4938   15.4033  -24.1954 H   0  0  0  0  0  0  0  0  0  0  0  0
  -10.4239   12.8679  -23.7558 H   0  0  0  0  0  0  0  0  0  0  0  0
  -12.6409   12.1157  -23.2059 H   0  0  0  0  0  0  0  0  0  0  0  0
  -14.2333   11.0930  -26.0415 H   0  0  0  0  0  0  0  0  0  0  0  0
   -8.0204    9.7259  -24.4660 H   0  0  0  0  0  0  0  0  0  0  0  0
  -10.7313    6.5319  -27.0470 H   0  0  0  0  0  0  0  0  0  0  0  0
  -10.8457    7.7959  -28.3450 H   0  0  0  0  0  0  0  0  0  0  0  0
  -10.9363   14.4745  -25.8614 H   0  0  0  0  0  0  0  0  0  0  0  0
  -10.8487   13.7876  -22.1306 H   0  0  0  0  0  0  0  0  0  0  0  0
  1  2  1  0
  2  3  1  0
  3  4  1  0
  4  5  1  0
  5  6  1  0
  5  7  1  0
  7  8  1  0
  8  9  2  0
  9 10  1  0
 10 11  2  0
 11 12  1  0
 12 13  2  0
 13 14  1  0
 14 15  2  0
 15 16  1  0
  4 17  1  0
  3 18  1  0
  6  2  1  0
 11  7  1  0
 15 10  1  0
  1 19  1  0
  1 20  1  0
  2 21  1  0
  3 22  1  0
  4 23  1  0
  5 24  1  0
  8 25  1  0
 13 26  1  0
 16 27  1  0
 16 28  1  0
 17 29  1  0
 18 30  1  0
M  RAD  1   1   2
M  END
$$$$

     RDKit          3D

 30 32  0  0  0  0  0  0  0  0999 V2000
  -14.2667   14.1891  -22.4964 C   0  0  0  0  0  3  0  0  0  0  0  0
  -12.9661   13.8773  -23.1851 C   0  0  0  0  0  0  0  0  0  0  0  0
  -12.8048   14.6993  -24.4572 C   0  0  0  0  0  0  0  0  0  0  0  0
  -11.7076   13.9266  -25.1644 C   0  0  0  0  0  0  0  0  0  0  0  0
  -11.7518   12.6006  -24.4407 C   0  0  0  0  0  0  0  0  0  0  0  0
  -12.9150   12.5853  -23.6871 O   0  0  0  0  0  0  0  0  0  0  0  0
  -11.7037   11.5146  -25.4007 N   0  0  0  0  0  0  0  0  0  0  0  0
  -12.2742   11.4573  -26.6134 C   0  0  0  0  0  0  0  0  0  0  0  0
  -11.9971   10.2801  -27.1979 N   0  0  0  0  0  0  0  0  0  0  0  0
  -11.2279    9.5521  -26.3467 C   0  0  0  0  0  0  0  0  0  0  0  0
  -11.0614   10.3466  -25.2355 C   0  0  0  0  0  0  0  0  0  0  0  0
  -10.3167    9.8253  -24.2331 N   0  0  0  0  0  0  0  0  0  0  0  0
   -9.7620    8.6009  -24.3005 C   0  0  0  0  0  0  0  0  0  0  0  0
   -9.9489    7.8529  -25.4078 N   0  0  0  0  0  0  0  0  0  0  0  0
  -10.6693    8.2879  -26.4450 C   0  0  0  0  0  0  0  0  0  0  0  0
  -10.8590    7.4917  -27.6051 N   0  0  0  0  0  0  0  0  0  0  0  0
  -10.4647   14.5178  -24.8766 O   0  0  0  0  0  0  0  0  0  0  0  0
  -12.4303   16.0027  -24.1629 O   0  0  0  0  0  0  0  0  0  0  0  0
  -14.1909   14.1486  -21.3910 H   0  0  0  0  0  0  0  0  0  0  0  0
  -15.1155   13.6023  -22.8893 H   0  0  0  0  0  0  0  0  0  0  0  0
  -12.0899   14.0171  -22.5287 H   0  0  0  0  0  0  0  0  0  0  0  0
  -13.7551   14.6402  -25.0348 H   0  0  0  0  0  0  0  0  0  0  0  0
  -11.8622   13.8412  -26.2385 H   0  0  0  0  0  0  0  0  0  0  0  0
  -10.9074   12.4867  -23.7456 H   0  0  0  0  0  0  0  0  0  0  0  0
  -12.8662   12.2551  -27.0370 H   0  0  0  0  0  0  0  0  0  0  0  0
   -9.1804    8.2626  -23.4506 H   0  0  0  0  0  0  0  0  0  0  0  0
  -11.2261    6.5013  -27.5599 H   0  0  0  0  0  0  0  0  0  0  0  0
  -10.6305    7.8897  -28.5424 H   0  0  0  0  0  0  0  0  0  0  0  0
  -10.4306   14.9026  -23.9751 H   0  0  0  0  0  0  0  0  0  0  0  0
  -13.1884   16.6360  -24.1636 H   0  0  0  0  0  0  0  0  0  0  0  0
  1  2  1  0
  2  3  1  0
  3  4  1  0
  4  5  1  0
  5  6  1  0
  5  7  1  0
  7  8  1  0
  8  9  2  0
  9 10  1  0
 10 11  2  0
 11 12  1  0
 12 13  2  0
 13 14  1  0
 14 15  2  0
 15 16  1  0
  4 17  1  0
  3 18  1  0
  6  2  1  0
 11  7  1  0
 15 10  1  0
  1 19  1  0
  1 20  1  0
  2 21  1  0
  3 22  1  0
  4 23  1  0
  5 24  1  0
  8 25  1  0
 13 26  1  0
 16 27  1  0
 16 28  1  0
 17 29  1  0
 18 30  1  0
M  RAD  1   1   2
M  END
$$$$

     RDKit          3D

 30 32  0  0  0  0  0  0  0  0999 V2000
  -14.3167   14.7385  -25.1032 C   0  0  0  0  0  3  0  0  0  0  0  0
  -13.1728   13.7924  -24.9624 C   0  0  0  0  0  0  0  0  0  0  0  0
  -11.8559   14.4865  -24.6787 C   0  0  0  0  0  0  0  0  0  0  0  0
  -11.0224   13.3261  -24.1757 C   0  0  0  0  0  0  0  0  0  0  0  0
  -12.0625   12.3290  -23.7538 C   0  0  0  0  0  0  0  0  0  0  0  0
  -13.2923   12.9797  -23.8160 O   0  0  0  0  0  0  0  0  0  0  0  0
  -12.1424   11.1941  -24.6595 N   0  0  0  0  0  0  0  0  0  0  0  0
  -13.2486   10.6287  -25.1736 C   0  0  0  0  0  0  0  0  0  0  0  0
  -12.9240    9.5990  -25.9720 N   0  0  0  0  0  0  0  0  0  0  0  0
  -11.5999    9.4884  -25.9817 C   0  0  0  0  0  0  0  0  0  0  0  0
  -11.1085   10.4826  -25.1635 C   0  0  0  0  0  0  0  0  0  0  0  0
   -9.7849   10.6049  -24.9884 N   0  0  0  0  0  0  0  0  0  0  0  0
   -8.9264    9.7715  -25.5995 C   0  0  0  0  0  0  0  0  0  0  0  0
   -9.4176    8.8051  -26.3956 N   0  0  0  0  0  0  0  0  0  0  0  0
  -10.7258    8.6164  -26.6225 C   0  0  0  0  0  0  0  0  0  0  0  0
  -11.2698    7.6052  -27.4574 N   0  0  0  0  0  0  0  0  0  0  0  0
  -10.2423   13.7663  -23.1111 O   0  0  0  0  0  0  0  0  0  0  0  0
  -12.0144   15.3935  -23.6414 O   0  0  0  0  0  0  0  0  0  0  0  0
  -14.4293   15.0053  -26.1651 H   0  0  0  0  0  0  0  0  0  0  0  0
  -14.2985   15.5804  -24.4100 H   0  0  0  0  0  0  0  0  0  0  0  0
  -13.0908   13.1784  -25.8736 H   0  0  0  0  0  0  0  0  0  0  0  0
  -11.4301   14.9478  -25.5915 H   0  0  0  0  0  0  0  0  0  0  0  0
  -10.3457   12.9540  -24.9621 H   0  0  0  0  0  0  0  0  0  0  0  0
  -11.8996   12.0148  -22.7138 H   0  0  0  0  0  0  0  0  0  0  0  0
  -14.2482   11.0147  -24.9260 H   0  0  0  0  0  0  0  0  0  0  0  0
   -7.8555    9.8731  -25.4557 H   0  0  0  0  0  0  0  0  0  0  0  0
  -11.5073    6.6398  -27.1092 H   0  0  0  0  0  0  0  0  0  0  0  0
  -11.4430    7.8337  -28.4716 H   0  0  0  0  0  0  0  0  0  0  0  0
   -9.4972   14.2988  -23.4885 H   0  0  0  0  0  0  0  0  0  0  0  0
  -12.1748   14.8774  -22.8114 H   0  0  0  0  0  0  0  0  0  0  0  0
  1  2  1  0
  2  3  1  0
  3  4  1  0
  4  5  1  0
  5  6  1  0
  5  7  1  0
  7  8  1  0
  8  9  2  0
  9 10  1  0
 10 11  2  0
 11 12  1  0
 12 13  2  0
 13 14  1  0
 14 15  2  0
 15 16  1  0
  4 17  1  0
  3 18  1  0
  6  2  1  0
 11  7  1  0
 15 10  1  0
  1 19  1  0
  1 20  1  0
  2 21  1  0
  3 22  1  0
  4 23  1  0
  5 24  1  0
  8 25  1  0
 13 26  1  0
 16 27  1  0
 16 28  1  0
 17 29  1  0
 18 30  1  0
M  RAD  1   1   2
M  END
$$$$

     RDKit          3D

 30 32  0  0  0  0  0  0  0  0999 V2000
  -14.1443   14.8533  -24.6442 C   0  0  0  0  0  3  0  0  0  0  0  0
  -12.6591   14.7088  -24.7401 C   0  0  0  0  0  0  0  0  0  0  0  0
  -12.0376   14.3501  -23.3872 C   0  0  0  0  0  0  0  0  0  0  0  0
  -12.2591   12.8589  -23.3326 C   0  0  0  0  0  0  0  0  0  0  0  0
  -12.7969   12.5588  -24.6987 C   0  0  0  0  0  0  0  0  0  0  0  0
  -12.2859   13.5698  -25.4916 O   0  0  0  0  0  0  0  0  0  0  0  0
  -12.5453   11.2437  -25.1671 N   0  0  0  0  0  0  0  0  0  0  0  0
  -13.4526   10.2631  -25.3694 C   0  0  0  0  0  0  0  0  0  0  0  0
  -12.8264    9.1596  -25.8182 N   0  0  0  0  0  0  0  0  0  0  0  0
  -11.5178    9.4146  -25.9096 C   0  0  0  0  0  0  0  0  0  0  0  0
  -11.3424   10.7200  -25.5016 C   0  0  0  0  0  0  0  0  0  0  0  0
  -10.1164   11.2860  -25.4791 N   0  0  0  0  0  0  0  0  0  0  0  0
   -9.0830   10.5185  -25.8715 C   0  0  0  0  0  0  0  0  0  0  0  0
   -9.2349    9.2353  -26.2752 N   0  0  0  0  0  0  0  0  0  0  0  0
  -10.4357    8.6354  -26.3123 C   0  0  0  0  0  0  0  0  0  0  0  0
  -10.6381    7.2955  -26.7280 N   0  0  0  0  0  0  0  0  0  0  0  0
  -11.0539   12.2490  -23.0604 O   0  0  0  0  0  0  0  0  0  0  0  0
  -10.6978   14.6879  -23.4692 O   0  0  0  0  0  0  0  0  0  0  0  0
  -14.6946   14.5959  -25.5514 H   0  0  0  0  0  0  0  0  0  0  0  0
  -14.5485   14.4283  -23.7145 H   0  0  0  0  0  0  0  0  0  0  0  0
  -12.1965   15.6244  -25.1263 H   0  0  0  0  0  0  0  0  0  0  0  0
  -12.5193   14.8668  -22.5609 H   0  0  0  0  0  0  0  0  0  0  0  0
  -13.0379   12.5931  -22.5765 H   0  0  0  0  0  0  0  0  0  0  0  0
  -13.9114   12.7325  -24.6549 H   0  0  0  0  0  0  0  0  0  0  0  0
  -14.5308   10.3781  -25.1866 H   0  0  0  0  0  0  0  0  0  0  0  0
   -8.0643   10.9167  -25.8766 H   0  0  0  0  0  0  0  0  0  0  0  0
  -11.4961    6.9710  -27.2156 H   0  0  0  0  0  0  0  0  0  0  0  0
   -9.8986    6.5873  -26.5429 H   0  0  0  0  0  0  0  0  0  0  0  0
  -10.2794   12.8315  -23.1297 H   0  0  0  0  0  0  0  0  0  0  0  0
  -10.6135   15.6201  -23.7895 H   0  0  0  0  0  0  0  0  0  0  0  0
  1  2  1  0
  2  3  1  0
  3  4  1  0
  4  5  1  0
  5  6  1  0
  5  7  1  0
  7  8  1  0
  8  9  2  0
  9 10  1  0
 10 11  2  0
 11 12  1  0
 12 13  2  0
 13 14  1  0
 14 15  2  0
 15 16  1  0
  4 17  1  0
  3 18  1  0
  6  2  1  0
 11  7  1  0
 15 10  1  0
  1 19  1  0
  1 20  1  0
  2 21  1  0
  3 22  1  0
  4 23  1  0
  5 24  1  0
  8 25  1  0
 13 26  1  0
 16 27  1  0
 16 28  1  0
 17 29  1  0
 18 30  1  0
M  RAD  1   1   2
M  END
$$$$

     RDKit          3D

 30 32  0  0  0  0  0  0  0  0999 V2000
  -14.5126   14.4647  -24.6544 C   0  0  0  0  0  3  0  0  0  0  0  0
  -12.9949   14.6507  -24.7768 C   0  0  0  0  0  0  0  0  0  0  0  0
  -12.4110   14.4477  -23.4220 C   0  0  0  0  0  0  0  0  0  0  0  0
  -11.5438   13.2305  -23.5733 C   0  0  0  0  0  0  0  0  0  0  0  0
  -11.5708   12.9378  -25.0295 C   0  0  0  0  0  0  0  0  0  0  0  0
  -12.5296   13.6989  -25.6334 O   0  0  0  0  0  0  0  0  0  0  0  0
  -11.8567   11.5400  -25.3238 N   0  0  0  0  0  0  0  0  0  0  0  0
  -13.0475   10.9322  -25.3652 C   0  0  0  0  0  0  0  0  0  0  0  0
  -12.8329    9.6402  -25.6762 N   0  0  0  0  0  0  0  0  0  0  0  0
  -11.5215    9.4150  -25.8338 C   0  0  0  0  0  0  0  0  0  0  0  0
  -10.8909   10.6217  -25.6108 C   0  0  0  0  0  0  0  0  0  0  0  0
   -9.5432   10.7154  -25.6990 N   0  0  0  0  0  0  0  0  0  0  0  0
   -8.7689    9.6569  -26.0023 C   0  0  0  0  0  0  0  0  0  0  0  0
   -9.3763    8.4763  -26.2212 N   0  0  0  0  0  0  0  0  0  0  0  0
  -10.7303    8.3309  -26.1443 C   0  0  0  0  0  0  0  0  0  0  0  0
  -11.3700    7.0981  -26.3725 N   0  0  0  0  0  0  0  0  0  0  0  0
  -11.9625   12.1595  -22.8132 O   0  0  0  0  0  0  0  0  0  0  0  0
  -11.6635   15.5915  -23.1044 O   0  0  0  0  0  0  0  0  0  0  0  0
  -14.7122   13.7984  -23.7945 H   0  0  0  0  0  0  0  0  0  0  0  0
  -14.8793   13.9558  -25.5626 H   0  0  0  0  0  0  0  0  0  0  0  0
  -12.8555   15.6829  -25.1511 H   0  0  0  0  0  0  0  0  0  0  0  0
  -13.1803   14.2685  -22.6252 H   0  0  0  0  0  0  0  0  0  0  0  0
  -10.5203   13.5090  -23.2114 H   0  0  0  0  0  0  0  0  0  0  0  0
  -10.5757   13.2214  -25.4600 H   0  0  0  0  0  0  0  0  0  0  0  0
  -13.9887   11.4350  -25.1746 H   0  0  0  0  0  0  0  0  0  0  0  0
   -7.6864    9.7269  -26.0742 H   0  0  0  0  0  0  0  0  0  0  0  0
  -11.4936    6.4426  -25.5774 H   0  0  0  0  0  0  0  0  0  0  0  0
  -11.7288    6.8050  -27.3013 H   0  0  0  0  0  0  0  0  0  0  0  0
  -12.7123   12.4915  -22.2260 H   0  0  0  0  0  0  0  0  0  0  0  0
  -11.2603   15.5333  -22.2023 H   0  0  0  0  0  0  0  0  0  0  0  0
  1  2  1  0
  2  3  1  0
  3  4  1  0
  4  5  1  0
  5  6  1  0
  5  7  1  0
  7  8  1  0
  8  9  2  0
  9 10  1  0
 10 11  2  0
 11 12  1  0
 12 13  2  0
 13 14  1  0
 14 15  2  0
 15 16  1  0
  4 17  1  0
  3 18  1  0
  6  2  1  0
 11  7  1  0
 15 10  1  0
  1 19  1  0
  1 20  1  0
  2 21  1  0
  3 22  1  0
  4 23  1  0
  5 24  1  0
  8 25  1  0
 13 26  1  0
 16 27  1  0
 16 28  1  0
 17 29  1  0
 18 30  1  0
M  RAD  1   1   2
M  END
$$$$

     RDKit          3D

 30 32  0  0  0  0  0  0  0  0999 V2000
  -12.9764   13.7407  -21.9616 C   0  0  0  0  0  3  0  0  0  0  0  0
  -11.8300   13.8883  -22.9395 C   0  0  0  0  0  0  0  0  0  0  0  0
  -12.1483   14.8873  -24.0112 C   0  0  0  0  0  0  0  0  0  0  0  0
  -11.8707   14.0781  -25.2786 C   0  0  0  0  0  0  0  0  0  0  0  0
  -12.2290   12.6796  -24.7685 C   0  0  0  0  0  0  0  0  0  0  0  0
  -11.5748   12.6758  -23.5408 O   0  0  0  0  0  0  0  0  0  0  0  0
  -11.7401   11.6487  -25.6244 N   0  0  0  0  0  0  0  0  0  0  0  0
  -11.5302   11.7187  -26.9514 C   0  0  0  0  0  0  0  0  0  0  0  0
  -11.0592   10.5270  -27.4045 N   0  0  0  0  0  0  0  0  0  0  0  0
  -10.9657    9.6903  -26.3705 C   0  0  0  0  0  0  0  0  0  0  0  0
  -11.3981   10.4157  -25.2644 C   0  0  0  0  0  0  0  0  0  0  0  0
  -11.3900    9.7649  -24.0922 N   0  0  0  0  0  0  0  0  0  0  0  0
  -10.9867    8.4852  -23.9941 C   0  0  0  0  0  0  0  0  0  0  0  0
  -10.5687    7.7926  -25.0794 N   0  0  0  0  0  0  0  0  0  0  0  0
  -10.5495    8.3794  -26.2875 C   0  0  0  0  0  0  0  0  0  0  0  0
  -10.1035    7.6154  -27.3988 N   0  0  0  0  0  0  0  0  0  0  0  0
  -12.6684   14.4739  -26.3248 O   0  0  0  0  0  0  0  0  0  0  0  0
  -13.5377   15.1464  -23.9640 O   0  0  0  0  0  0  0  0  0  0  0  0
  -13.3581   14.7052  -21.5939 H   0  0  0  0  0  0  0  0  0  0  0  0
  -12.6982   13.0406  -21.1653 H   0  0  0  0  0  0  0  0  0  0  0  0
  -10.9009   14.2614  -22.4191 H   0  0  0  0  0  0  0  0  0  0  0  0
  -11.5670   15.8078  -23.9693 H   0  0  0  0  0  0  0  0  0  0  0  0
  -10.7806   14.1321  -25.4946 H   0  0  0  0  0  0  0  0  0  0  0  0
  -13.3048   12.6548  -24.5721 H   0  0  0  0  0  0  0  0  0  0  0  0
  -11.6857   12.5486  -27.6190 H   0  0  0  0  0  0  0  0  0  0  0  0
  -10.9799    7.9574  -23.0449 H   0  0  0  0  0  0  0  0  0  0  0  0
   -9.3224    7.9319  -28.0157 H   0  0  0  0  0  0  0  0  0  0  0  0
  -10.5429    6.6944  -27.6484 H   0  0  0  0  0  0  0  0  0  0  0  0
  -12.1016   14.9737  -26.9658 H   0  0  0  0  0  0  0  0  0  0  0  0
  -14.0160   14.3307  -23.6242 H   0  0  0  0  0  0  0  0  0  0  0  0
  1  2  1  0
  2  3  1  0
  3  4  1  0
  4  5  1  0
  5  6  1  0
  5  7  1  0
  7  8  1  0
  8  9  2  0
  9 10  1  0
 10 11  2  0
 11 12  1  0
 12 13  2  0
 13 14  1  0
 14 15  2  0
 15 16  1  0
  4 17  1  0
  3 18  1  0
  6  2  1  0
 11  7  1  0
 15 10  1  0
  1 19  1  0
  1 20  1  0
  2 21  1  0
  3 22  1  0
  4 23  1  0
  5 24  1  0
  8 25  1  0
 13 26  1  0
 16 27  1  0
 16 28  1  0
 17 29  1  0
 18 30  1  0
M  RAD  1   1   2
M  END
$$$$

     RDKit          3D

 30 32  0  0  0  0  0  0  0  0999 V2000
  -13.4147   13.8747  -22.1882 C   0  0  0  0  0  3  0  0  0  0  0  0
  -12.1244   13.9101  -22.9823 C   0  0  0  0  0  0  0  0  0  0  0  0
  -12.3306   14.8778  -24.1221 C   0  0  0  0  0  0  0  0  0  0  0  0
  -12.0717   13.9978  -25.3266 C   0  0  0  0  0  0  0  0  0  0  0  0
  -11.1231   12.9569  -24.7138 C   0  0  0  0  0  0  0  0  0  0  0  0
  -11.7916   12.6897  -23.5201 O   0  0  0  0  0  0  0  0  0  0  0  0
  -11.1134   11.8122  -25.6036 N   0  0  0  0  0  0  0  0  0  0  0  0
  -11.2557   11.7909  -26.9406 C   0  0  0  0  0  0  0  0  0  0  0  0
  -11.1912   10.5362  -27.4171 N   0  0  0  0  0  0  0  0  0  0  0  0
  -11.0048    9.7411  -26.3703 C   0  0  0  0  0  0  0  0  0  0  0  0
  -10.9535   10.5160  -25.2318 C   0  0  0  0  0  0  0  0  0  0  0  0
  -10.7700    9.9234  -24.0394 N   0  0  0  0  0  0  0  0  0  0  0  0
  -10.6399    8.5867  -23.9778 C   0  0  0  0  0  0  0  0  0  0  0  0
  -10.6908    7.8328  -25.0949 N   0  0  0  0  0  0  0  0  0  0  0  0
  -10.8714    8.3532  -26.3227 C   0  0  0  0  0  0  0  0  0  0  0  0
  -10.9268    7.5715  -27.5051 N   0  0  0  0  0  0  0  0  0  0  0  0
  -13.2169   13.2956  -25.7056 O   0  0  0  0  0  0  0  0  0  0  0  0
  -13.6365   15.3416  -24.1937 O   0  0  0  0  0  0  0  0  0  0  0  0
  -13.5505   12.9513  -21.6178 H   0  0  0  0  0  0  0  0  0  0  0  0
  -13.4646   14.7980  -21.5814 H   0  0  0  0  0  0  0  0  0  0  0  0
  -11.3157   14.3034  -22.3025 H   0  0  0  0  0  0  0  0  0  0  0  0
  -11.5873   15.6977  -24.0822 H   0  0  0  0  0  0  0  0  0  0  0  0
  -11.6064   14.5289  -26.1583 H   0  0  0  0  0  0  0  0  0  0  0  0
  -10.1214   13.3725  -24.5460 H   0  0  0  0  0  0  0  0  0  0  0  0
  -11.4028   12.7152  -27.5114 H   0  0  0  0  0  0  0  0  0  0  0  0
  -10.4888    8.0737  -23.0175 H   0  0  0  0  0  0  0  0  0  0  0  0
  -10.5504    7.9230  -28.3837 H   0  0  0  0  0  0  0  0  0  0  0  0
  -11.3562    6.6251  -27.4824 H   0  0  0  0  0  0  0  0  0  0  0  0
  -13.3473   12.5324  -25.0615 H   0  0  0  0  0  0  0  0  0  0  0  0
  -14.1991   14.6398  -24.6369 H   0  0  0  0  0  0  0  0  0  0  0  0
  1  2  1  0
  2  3  1  0
  3  4  1  0
  4  5  1  0
  5  6  1  0
  5  7  1  0
  7  8  1  0
  8  9  2  0
  9 10  1  0
 10 11  2  0
 11 12  1  0
 12 13  2  0
 13 14  1  0
 14 15  2  0
 15 16  1  0
  4 17  1  0
  3 18  1  0
  6  2  1  0
 11  7  1  0
 15 10  1  0
  1 19  1  0
  1 20  1  0
  2 21  1  0
  3 22  1  0
  4 23  1  0
  5 24  1  0
  8 25  1  0
 13 26  1  0
 16 27  1  0
 16 28  1  0
 17 29  1  0
 18 30  1  0
M  RAD  1   1   2
M  END
$$$$

     RDKit          3D

 30 32  0  0  0  0  0  0  0  0999 V2000
  -12.4640   13.7299  -21.6001 C   0  0  0  0  0  3  0  0  0  0  0  0
  -11.9659   13.9274  -23.0146 C   0  0  0  0  0  0  0  0  0  0  0  0
  -13.0976   14.3687  -23.9079 C   0  0  0  0  0  0  0  0  0  0  0  0
  -13.0395   13.3278  -25.0326 C   0  0  0  0  0  0  0  0  0  0  0  0
  -11.5805   12.9315  -24.8902 C   0  0  0  0  0  0  0  0  0  0  0  0
  -11.4920   12.7212  -23.5326 O   0  0  0  0  0  0  0  0  0  0  0  0
  -11.2102   11.8217  -25.6965 N   0  0  0  0  0  0  0  0  0  0  0  0
  -10.8151   11.8736  -26.9817 C   0  0  0  0  0  0  0  0  0  0  0  0
  -10.5439   10.6183  -27.4204 N   0  0  0  0  0  0  0  0  0  0  0  0
  -10.7744    9.7654  -26.3880 C   0  0  0  0  0  0  0  0  0  0  0  0
  -11.1891   10.5198  -25.3172 C   0  0  0  0  0  0  0  0  0  0  0  0
  -11.4989    9.9616  -24.1315 N   0  0  0  0  0  0  0  0  0  0  0  0
  -11.3894    8.6246  -24.0237 C   0  0  0  0  0  0  0  0  0  0  0  0
  -10.9880    7.8451  -25.0430 N   0  0  0  0  0  0  0  0  0  0  0  0
  -10.6758    8.3962  -26.2339 C   0  0  0  0  0  0  0  0  0  0  0  0
  -10.2494    7.6579  -27.3478 N   0  0  0  0  0  0  0  0  0  0  0  0
  -13.3325   13.8765  -26.2546 O   0  0  0  0  0  0  0  0  0  0  0  0
  -12.8207   15.6408  -24.4397 O   0  0  0  0  0  0  0  0  0  0  0  0
  -11.6042   13.5793  -20.9285 H   0  0  0  0  0  0  0  0  0  0  0  0
  -13.2067   12.9340  -21.5914 H   0  0  0  0  0  0  0  0  0  0  0  0
  -11.1059   14.6381  -23.0493 H   0  0  0  0  0  0  0  0  0  0  0  0
  -14.0749   14.3694  -23.4152 H   0  0  0  0  0  0  0  0  0  0  0  0
  -13.7140   12.5247  -24.7371 H   0  0  0  0  0  0  0  0  0  0  0  0
  -10.9904   13.8613  -25.1155 H   0  0  0  0  0  0  0  0  0  0  0  0
  -10.7368   12.7900  -27.5476 H   0  0  0  0  0  0  0  0  0  0  0  0
  -11.6232    8.1014  -23.0939 H   0  0  0  0  0  0  0  0  0  0  0  0
  -10.9279    7.3790  -28.0732 H   0  0  0  0  0  0  0  0  0  0  0  0
   -9.2573    7.3932  -27.4424 H   0  0  0  0  0  0  0  0  0  0  0  0
  -12.7370   14.6129  -26.4647 H   0  0  0  0  0  0  0  0  0  0  0  0
  -11.8521   15.7987  -24.3666 H   0  0  0  0  0  0  0  0  0  0  0  0
  1  2  1  0
  2  3  1  0
  3  4  1  0
  4  5  1  0
  5  6  1  0
  5  7  1  0
  7  8  1  0
  8  9  2  0
  9 10  1  0
 10 11  2  0
 11 12  1  0
 12 13  2  0
 13 14  1  0
 14 15  2  0
 15 16  1  0
  4 17  1  0
  3 18  1  0
  6  2  1  0
 11  7  1  0
 15 10  1  0
  1 19  1  0
  1 20  1  0
  2 21  1  0
  3 22  1  0
  4 23  1  0
  5 24  1  0
  8 25  1  0
 13 26  1  0
 16 27  1  0
 16 28  1  0
 17 29  1  0
 18 30  1  0
M  RAD  1   1   2
M  END
$$$$

     RDKit          3D

 30 32  0  0  0  0  0  0  0  0999 V2000
  -12.8421   13.8067  -21.9651 C   0  0  0  0  0  3  0  0  0  0  0  0
  -12.7785   13.0043  -23.2717 C   0  0  0  0  0  0  0  0  0  0  0  0
  -13.1834   13.8632  -24.4182 C   0  0  0  0  0  0  0  0  0  0  0  0
  -11.8538   14.1631  -25.0862 C   0  0  0  0  0  0  0  0  0  0  0  0
  -11.0119   13.0177  -24.6453 C   0  0  0  0  0  0  0  0  0  0  0  0
  -11.4917   12.5937  -23.4352 O   0  0  0  0  0  0  0  0  0  0  0  0
  -10.9265   11.9294  -25.5599 N   0  0  0  0  0  0  0  0  0  0  0  0
  -10.7008   11.9694  -26.9025 C   0  0  0  0  0  0  0  0  0  0  0  0
  -10.7042   10.7013  -27.3438 N   0  0  0  0  0  0  0  0  0  0  0  0
  -10.9263    9.8382  -26.3221 C   0  0  0  0  0  0  0  0  0  0  0  0
  -11.0625   10.6380  -25.2118 C   0  0  0  0  0  0  0  0  0  0  0  0
  -11.2960   10.0087  -24.0367 N   0  0  0  0  0  0  0  0  0  0  0  0
  -11.3947    8.6708  -23.9300 C   0  0  0  0  0  0  0  0  0  0  0  0
  -11.2555    7.9214  -25.0398 N   0  0  0  0  0  0  0  0  0  0  0  0
  -11.0223    8.4630  -26.2453 C   0  0  0  0  0  0  0  0  0  0  0  0
  -10.8775    7.6624  -27.4075 N   0  0  0  0  0  0  0  0  0  0  0  0
  -11.9720   14.3435  -26.4294 O   0  0  0  0  0  0  0  0  0  0  0  0
  -13.8273   15.0131  -24.0056 O   0  0  0  0  0  0  0  0  0  0  0  0
  -13.7458   14.4189  -21.9009 H   0  0  0  0  0  0  0  0  0  0  0  0
  -12.7338   13.0957  -21.1246 H   0  0  0  0  0  0  0  0  0  0  0  0
  -13.4981   12.1367  -23.2289 H   0  0  0  0  0  0  0  0  0  0  0  0
  -13.7853   13.3112  -25.1880 H   0  0  0  0  0  0  0  0  0  0  0  0
  -11.4613   15.0887  -24.6192 H   0  0  0  0  0  0  0  0  0  0  0  0
   -9.9679   13.4084  -24.4613 H   0  0  0  0  0  0  0  0  0  0  0  0
  -10.5458   12.8474  -27.5134 H   0  0  0  0  0  0  0  0  0  0  0  0
  -11.5848    8.1925  -22.9608 H   0  0  0  0  0  0  0  0  0  0  0  0
  -11.4350    7.8552  -28.2923 H   0  0  0  0  0  0  0  0  0  0  0  0
  -10.2298    6.8465  -27.4774 H   0  0  0  0  0  0  0  0  0  0  0  0
  -11.8566   15.2885  -26.7052 H   0  0  0  0  0  0  0  0  0  0  0  0
  -13.2142   15.7118  -23.7302 H   0  0  0  0  0  0  0  0  0  0  0  0
  1  2  1  0
  2  3  1  0
  3  4  1  0
  4  5  1  0
  5  6  1  0
  5  7  1  0
  7  8  1  0
  8  9  2  0
  9 10  1  0
 10 11  2  0
 11 12  1  0
 12 13  2  0
 13 14  1  0
 14 15  2  0
 15 16  1  0
  4 17  1  0
  3 18  1  0
  6  2  1  0
 11  7  1  0
 15 10  1  0
  1 19  1  0
  1 20  1  0
  2 21  1  0
  3 22  1  0
  4 23  1  0
  5 24  1  0
  8 25  1  0
 13 26  1  0
 16 27  1  0
 16 28  1  0
 17 29  1  0
 18 30  1  0
M  RAD  1   1   2
M  END
$$$$

     RDKit          3D

 30 32  0  0  0  0  0  0  0  0999 V2000
  -12.5628   14.1599  -21.7331 C   0  0  0  0  0  3  0  0  0  0  0  0
  -12.0070   14.0553  -23.0803 C   0  0  0  0  0  0  0  0  0  0  0  0
  -12.7414   14.7048  -24.1859 C   0  0  0  0  0  0  0  0  0  0  0  0
  -12.2216   13.9609  -25.4060 C   0  0  0  0  0  0  0  0  0  0  0  0
  -11.2199   13.0184  -24.7725 C   0  0  0  0  0  0  0  0  0  0  0  0
  -11.8475   12.7337  -23.5470 O   0  0  0  0  0  0  0  0  0  0  0  0
  -11.0617   11.8599  -25.5969 N   0  0  0  0  0  0  0  0  0  0  0  0
  -10.9081   11.9379  -26.9370 C   0  0  0  0  0  0  0  0  0  0  0  0
  -10.7860   10.6681  -27.4045 N   0  0  0  0  0  0  0  0  0  0  0  0
  -10.8599    9.7964  -26.3849 C   0  0  0  0  0  0  0  0  0  0  0  0
  -11.0336   10.5531  -25.2490 C   0  0  0  0  0  0  0  0  0  0  0  0
  -11.1398    9.9310  -24.0674 N   0  0  0  0  0  0  0  0  0  0  0  0
  -11.0827    8.5857  -23.9484 C   0  0  0  0  0  0  0  0  0  0  0  0
  -10.9135    7.8395  -25.0510 N   0  0  0  0  0  0  0  0  0  0  0  0
  -10.7988    8.4134  -26.2835 C   0  0  0  0  0  0  0  0  0  0  0  0
  -10.6208    7.6217  -27.4402 N   0  0  0  0  0  0  0  0  0  0  0  0
  -13.2180   13.1955  -26.0062 O   0  0  0  0  0  0  0  0  0  0  0  0
  -14.1040   14.5727  -24.1621 O   0  0  0  0  0  0  0  0  0  0  0  0
  -13.6366   14.1617  -21.6158 H   0  0  0  0  0  0  0  0  0  0  0  0
  -12.0934   13.4549  -21.0521 H   0  0  0  0  0  0  0  0  0  0  0  0
  -10.9584   14.4746  -23.0756 H   0  0  0  0  0  0  0  0  0  0  0  0
  -12.3923   15.7503  -24.2892 H   0  0  0  0  0  0  0  0  0  0  0  0
  -11.7948   14.6164  -26.1614 H   0  0  0  0  0  0  0  0  0  0  0  0
  -10.2858   13.5704  -24.5785 H   0  0  0  0  0  0  0  0  0  0  0  0
  -10.8783   12.8065  -27.5804 H   0  0  0  0  0  0  0  0  0  0  0  0
  -11.1663    8.0676  -23.0048 H   0  0  0  0  0  0  0  0  0  0  0  0
  -11.3684    6.9564  -27.7015 H   0  0  0  0  0  0  0  0  0  0  0  0
   -9.7548    7.7250  -27.9938 H   0  0  0  0  0  0  0  0  0  0  0  0
  -14.1025   13.3127  -25.6175 H   0  0  0  0  0  0  0  0  0  0  0  0
  -14.5411   14.8131  -23.3279 H   0  0  0  0  0  0  0  0  0  0  0  0
  1  2  1  0
  2  3  1  0
  3  4  1  0
  4  5  1  0
  5  6  1  0
  5  7  1  0
  7  8  1  0
  8  9  2  0
  9 10  1  0
 10 11  2  0
 11 12  1  0
 12 13  2  0
 13 14  1  0
 14 15  2  0
 15 16  1  0
  4 17  1  0
  3 18  1  0
  6  2  1  0
 11  7  1  0
 15 10  1  0
  1 19  1  0
  1 20  1  0
  2 21  1  0
  3 22  1  0
  4 23  1  0
  5 24  1  0
  8 25  1  0
 13 26  1  0
 16 27  1  0
 16 28  1  0
 17 29  1  0
 18 30  1  0
M  RAD  1   1   2
M  END
$$$$

     RDKit          3D

 30 32  0  0  0  0  0  0  0  0999 V2000
  -13.8606   12.0766  -23.8362 C   0  0  0  0  0  3  0  0  0  0  0  0
  -13.3115   13.4761  -23.9382 C   0  0  0  0  0  0  0  0  0  0  0  0
  -11.8839   13.4911  -23.4073 C   0  0  0  0  0  0  0  0  0  0  0  0
  -11.1253   13.8906  -24.6520 C   0  0  0  0  0  0  0  0  0  0  0  0
  -11.9792   13.3668  -25.7252 C   0  0  0  0  0  0  0  0  0  0  0  0
  -13.2408   13.8520  -25.2862 O   0  0  0  0  0  0  0  0  0  0  0  0
  -12.0019   11.9557  -25.9167 N   0  0  0  0  0  0  0  0  0  0  0  0
  -13.0205   11.3391  -26.5670 C   0  0  0  0  0  0  0  0  0  0  0  0
  -12.8026   10.0128  -26.6109 N   0  0  0  0  0  0  0  0  0  0  0  0
  -11.6486    9.7399  -25.9961 C   0  0  0  0  0  0  0  0  0  0  0  0
  -11.1741   10.9688  -25.5751 C   0  0  0  0  0  0  0  0  0  0  0  0
  -10.0195   10.9930  -24.9225 N   0  0  0  0  0  0  0  0  0  0  0  0
   -9.3288    9.8649  -24.6754 C   0  0  0  0  0  0  0  0  0  0  0  0
   -9.8022    8.6609  -25.0927 N   0  0  0  0  0  0  0  0  0  0  0  0
  -10.9649    8.5537  -25.7603 C   0  0  0  0  0  0  0  0  0  0  0  0
  -11.4740    7.3011  -26.2038 N   0  0  0  0  0  0  0  0  0  0  0  0
   -9.8020   13.6269  -24.6592 O   0  0  0  0  0  0  0  0  0  0  0  0
  -11.6868   14.4378  -22.4312 O   0  0  0  0  0  0  0  0  0  0  0  0
  -14.9080   12.0297  -23.5368 H   0  0  0  0  0  0  0  0  0  0  0  0
  -13.2641   11.4489  -23.1421 H   0  0  0  0  0  0  0  0  0  0  0  0
  -13.9721   14.1660  -23.4126 H   0  0  0  0  0  0  0  0  0  0  0  0
  -11.6116   12.5101  -23.0224 H   0  0  0  0  0  0  0  0  0  0  0  0
  -11.2256   15.0202  -24.6891 H   0  0  0  0  0  0  0  0  0  0  0  0
  -11.7780   13.9072  -26.6715 H   0  0  0  0  0  0  0  0  0  0  0  0
  -13.8931   11.8042  -26.9994 H   0  0  0  0  0  0  0  0  0  0  0  0
   -8.3844    9.9076  -24.1388 H   0  0  0  0  0  0  0  0  0  0  0  0
  -12.3427    6.9123  -25.7314 H   0  0  0  0  0  0  0  0  0  0  0  0
  -11.0185    6.7594  -26.9756 H   0  0  0  0  0  0  0  0  0  0  0  0
   -9.1900   14.3902  -24.6146 H   0  0  0  0  0  0  0  0  0  0  0  0
  -12.5152   14.6350  -21.8923 H   0  0  0  0  0  0  0  0  0  0  0  0
  1  2  1  0
  2  3  1  0
  3  4  1  0
  4  5  1  0
  5  6  1  0
  5  7  1  0
  7  8  1  0
  8  9  2  0
  9 10  1  0
 10 11  2  0
 11 12  1  0
 12 13  2  0
 13 14  1  0
 14 15  2  0
 15 16  1  0
  4 17  1  0
  3 18  1  0
  6  2  1  0
 11  7  1  0
 15 10  1  0
  1 19  1  0
  1 20  1  0
  2 21  1  0
  3 22  1  0
  4 23  1  0
  5 24  1  0
  8 25  1  0
 13 26  1  0
 16 27  1  0
 16 28  1  0
 17 29  1  0
 18 30  1  0
M  RAD  1   1   2
M  END
$$$$

     RDKit          3D

 30 32  0  0  0  0  0  0  0  0999 V2000
  -11.1495   15.8294  -24.6913 C   0  0  0  0  0  3  0  0  0  0  0  0
  -12.1703   14.7306  -24.7055 C   0  0  0  0  0  0  0  0  0  0  0  0
  -12.5119   14.2330  -23.3108 C   0  0  0  0  0  0  0  0  0  0  0  0
  -12.7925   12.7509  -23.5518 C   0  0  0  0  0  0  0  0  0  0  0  0
  -12.6308   12.6636  -25.0400 C   0  0  0  0  0  0  0  0  0  0  0  0
  -11.5929   13.5703  -25.2726 O   0  0  0  0  0  0  0  0  0  0  0  0
  -12.3883   11.3702  -25.5497 N   0  0  0  0  0  0  0  0  0  0  0  0
  -13.2966   10.6072  -26.1777 C   0  0  0  0  0  0  0  0  0  0  0  0
  -12.7553    9.4574  -26.5294 N   0  0  0  0  0  0  0  0  0  0  0  0
  -11.4855    9.4528  -26.1361 C   0  0  0  0  0  0  0  0  0  0  0  0
  -11.2357   10.6533  -25.5152 C   0  0  0  0  0  0  0  0  0  0  0  0
  -10.0091   10.8670  -25.0366 N   0  0  0  0  0  0  0  0  0  0  0  0
   -9.0398    9.9644  -25.1432 C   0  0  0  0  0  0  0  0  0  0  0  0
   -9.2936    8.7945  -25.7516 N   0  0  0  0  0  0  0  0  0  0  0  0
  -10.4908    8.4819  -26.2658 C   0  0  0  0  0  0  0  0  0  0  0  0
  -10.7801    7.2614  -26.9081 N   0  0  0  0  0  0  0  0  0  0  0  0
  -11.8377   12.0427  -22.8441 O   0  0  0  0  0  0  0  0  0  0  0  0
  -13.6668   14.8773  -22.8267 O   0  0  0  0  0  0  0  0  0  0  0  0
  -11.4502   16.7243  -25.2678 H   0  0  0  0  0  0  0  0  0  0  0  0
  -10.1278   15.4788  -24.9351 H   0  0  0  0  0  0  0  0  0  0  0  0
  -13.1123   14.9912  -25.1984 H   0  0  0  0  0  0  0  0  0  0  0  0
  -11.6406   14.3974  -22.6680 H   0  0  0  0  0  0  0  0  0  0  0  0
  -13.7838   12.4731  -23.1813 H   0  0  0  0  0  0  0  0  0  0  0  0
  -13.5389   13.1164  -25.4960 H   0  0  0  0  0  0  0  0  0  0  0  0
  -14.3433   10.8801  -26.3801 H   0  0  0  0  0  0  0  0  0  0  0  0
   -8.0273   10.1388  -24.7491 H   0  0  0  0  0  0  0  0  0  0  0  0
  -11.2644    7.1844  -27.8428 H   0  0  0  0  0  0  0  0  0  0  0  0
  -10.5107    6.3690  -26.4550 H   0  0  0  0  0  0  0  0  0  0  0  0
  -10.9435   12.4974  -22.9236 H   0  0  0  0  0  0  0  0  0  0  0  0
  -14.3856   14.2186  -22.7520 H   0  0  0  0  0  0  0  0  0  0  0  0
  1  2  1  0
  2  3  1  0
  3  4  1  0
  4  5  1  0
  5  6  1  0
  5  7  1  0
  7  8  1  0
  8  9  2  0
  9 10  1  0
 10 11  2  0
 11 12  1  0
 12 13  2  0
 13 14  1  0
 14 15  2  0
 15 16  1  0
  4 17  1  0
  3 18  1  0
  6  2  1  0
 11  7  1  0
 15 10  1  0
  1 19  1  0
  1 20  1  0
  2 21  1  0
  3 22  1  0
  4 23  1  0
  5 24  1  0
  8 25  1  0
 13 26  1  0
 16 27  1  0
 16 28  1  0
 17 29  1  0
 18 30  1  0
M  RAD  1   1   2
M  END
$$$$

     RDKit          3D

 30 32  0  0  0  0  0  0  0  0999 V2000
  -13.1896   13.9789  -21.9237 C   0  0  0  0  0  3  0  0  0  0  0  0
  -13.2111   13.8880  -23.4242 C   0  0  0  0  0  0  0  0  0  0  0  0
  -12.0563   14.6825  -23.9704 C   0  0  0  0  0  0  0  0  0  0  0  0
  -11.4067   13.6882  -24.9329 C   0  0  0  0  0  0  0  0  0  0  0  0
  -12.5419   12.7289  -25.1184 C   0  0  0  0  0  0  0  0  0  0  0  0
  -12.9779   12.5483  -23.8084 O   0  0  0  0  0  0  0  0  0  0  0  0
  -12.2222   11.5359  -25.8044 N   0  0  0  0  0  0  0  0  0  0  0  0
  -12.7641   11.1346  -26.9841 C   0  0  0  0  0  0  0  0  0  0  0  0
  -12.2170    9.9558  -27.3239 N   0  0  0  0  0  0  0  0  0  0  0  0
  -11.3366    9.5881  -26.3926 C   0  0  0  0  0  0  0  0  0  0  0  0
  -11.3527   10.5937  -25.4443 C   0  0  0  0  0  0  0  0  0  0  0  0
  -10.5465   10.4663  -24.3892 N   0  0  0  0  0  0  0  0  0  0  0  0
   -9.7239    9.4175  -24.2008 C   0  0  0  0  0  0  0  0  0  0  0  0
   -9.7364    8.4587  -25.1457 N   0  0  0  0  0  0  0  0  0  0  0  0
  -10.4997    8.4915  -26.2296 C   0  0  0  0  0  0  0  0  0  0  0  0
  -10.5319    7.4969  -27.2378 N   0  0  0  0  0  0  0  0  0  0  0  0
  -10.3372   13.1338  -24.2559 O   0  0  0  0  0  0  0  0  0  0  0  0
  -12.4754   15.8205  -24.6695 O   0  0  0  0  0  0  0  0  0  0  0  0
  -13.6345   13.0730  -21.4864 H   0  0  0  0  0  0  0  0  0  0  0  0
  -13.6853   14.9025  -21.5646 H   0  0  0  0  0  0  0  0  0  0  0  0
  -14.1900   14.2157  -23.8590 H   0  0  0  0  0  0  0  0  0  0  0  0
  -11.3421   15.0163  -23.2002 H   0  0  0  0  0  0  0  0  0  0  0  0
  -11.1147   14.1840  -25.8816 H   0  0  0  0  0  0  0  0  0  0  0  0
  -13.3616   13.2920  -25.6369 H   0  0  0  0  0  0  0  0  0  0  0  0
  -13.5211   11.7140  -27.5304 H   0  0  0  0  0  0  0  0  0  0  0  0
   -9.0716    9.3371  -23.3251 H   0  0  0  0  0  0  0  0  0  0  0  0
  -11.4209    6.9585  -27.4595 H   0  0  0  0  0  0  0  0  0  0  0  0
   -9.6938    7.2498  -27.8030 H   0  0  0  0  0  0  0  0  0  0  0  0
  -10.0238   13.7327  -23.5323 H   0  0  0  0  0  0  0  0  0  0  0  0
  -12.7829   16.4800  -24.0063 H   0  0  0  0  0  0  0  0  0  0  0  0
  1  2  1  0
  2  3  1  0
  3  4  1  0
  4  5  1  0
  5  6  1  0
  5  7  1  0
  7  8  1  0
  8  9  2  0
  9 10  1  0
 10 11  2  0
 11 12  1  0
 12 13  2  0
 13 14  1  0
 14 15  2  0
 15 16  1  0
  4 17  1  0
  3 18  1  0
  6  2  1  0
 11  7  1  0
 15 10  1  0
  1 19  1  0
  1 20  1  0
  2 21  1  0
  3 22  1  0
  4 23  1  0
  5 24  1  0
  8 25  1  0
 13 26  1  0
 16 27  1  0
 16 28  1  0
 17 29  1  0
 18 30  1  0
M  RAD  1   1   2
M  END
$$$$

     RDKit          3D

 30 32  0  0  0  0  0  0  0  0999 V2000
  -11.9596   15.8819  -25.3626 C   0  0  0  0  0  3  0  0  0  0  0  0
  -11.6494   14.7816  -24.3611 C   0  0  0  0  0  0  0  0  0  0  0  0
  -12.8327   14.4992  -23.4931 C   0  0  0  0  0  0  0  0  0  0  0  0
  -12.9489   12.9902  -23.5641 C   0  0  0  0  0  0  0  0  0  0  0  0
  -11.7091   12.5476  -24.2597 C   0  0  0  0  0  0  0  0  0  0  0  0
  -11.2821   13.6243  -25.0003 O   0  0  0  0  0  0  0  0  0  0  0  0
  -11.8803   11.3750  -25.0801 N   0  0  0  0  0  0  0  0  0  0  0  0
  -12.9699   10.9752  -25.7597 C   0  0  0  0  0  0  0  0  0  0  0  0
  -12.7096    9.8217  -26.4004 N   0  0  0  0  0  0  0  0  0  0  0  0
  -11.4513    9.4526  -26.1496 C   0  0  0  0  0  0  0  0  0  0  0  0
  -10.9342   10.4286  -25.3216 C   0  0  0  0  0  0  0  0  0  0  0  0
   -9.6664   10.2930  -24.9170 N   0  0  0  0  0  0  0  0  0  0  0  0
   -8.8999    9.2524  -25.2887 C   0  0  0  0  0  0  0  0  0  0  0  0
   -9.4093    8.3044  -26.0958 N   0  0  0  0  0  0  0  0  0  0  0  0
  -10.6906    8.3597  -26.5572 C   0  0  0  0  0  0  0  0  0  0  0  0
  -11.2286    7.3670  -27.4042 N   0  0  0  0  0  0  0  0  0  0  0  0
  -12.9369   12.5193  -22.2371 O   0  0  0  0  0  0  0  0  0  0  0  0
  -13.9681   15.1345  -24.0036 O   0  0  0  0  0  0  0  0  0  0  0  0
  -11.6391   15.6058  -26.3824 H   0  0  0  0  0  0  0  0  0  0  0  0
  -12.9879   16.2365  -25.3005 H   0  0  0  0  0  0  0  0  0  0  0  0
  -10.8228   15.1502  -23.7173 H   0  0  0  0  0  0  0  0  0  0  0  0
  -12.6851   14.8614  -22.4609 H   0  0  0  0  0  0  0  0  0  0  0  0
  -13.8853   12.7516  -24.0662 H   0  0  0  0  0  0  0  0  0  0  0  0
  -10.9306   12.2898  -23.4898 H   0  0  0  0  0  0  0  0  0  0  0  0
  -13.9306   11.5106  -25.7882 H   0  0  0  0  0  0  0  0  0  0  0  0
   -7.8761    9.1558  -24.9537 H   0  0  0  0  0  0  0  0  0  0  0  0
  -11.9432    6.6961  -27.0698 H   0  0  0  0  0  0  0  0  0  0  0  0
  -10.9047    7.3028  -28.3854 H   0  0  0  0  0  0  0  0  0  0  0  0
  -13.7200   11.9310  -22.0939 H   0  0  0  0  0  0  0  0  0  0  0  0
  -14.4963   14.4997  -24.5605 H   0  0  0  0  0  0  0  0  0  0  0  0
  1  2  1  0
  2  3  1  0
  3  4  1  0
  4  5  1  0
  5  6  1  0
  5  7  1  0
  7  8  1  0
  8  9  2  0
  9 10  1  0
 10 11  2  0
 11 12  1  0
 12 13  2  0
 13 14  1  0
 14 15  2  0
 15 16  1  0
  4 17  1  0
  3 18  1  0
  6  2  1  0
 11  7  1  0
 15 10  1  0
  1 19  1  0
  1 20  1  0
  2 21  1  0
  3 22  1  0
  4 23  1  0
  5 24  1  0
  8 25  1  0
 13 26  1  0
 16 27  1  0
 16 28  1  0
 17 29  1  0
 18 30  1  0
M  RAD  1   1   2
M  END
$$$$

     RDKit          3D

 30 32  0  0  0  0  0  0  0  0999 V2000
  -12.1461   13.8815  -21.6493 C   0  0  0  0  0  3  0  0  0  0  0  0
  -12.5753   13.7228  -23.0673 C   0  0  0  0  0  0  0  0  0  0  0  0
  -11.7795   14.5607  -24.0392 C   0  0  0  0  0  0  0  0  0  0  0  0
  -12.1118   13.8878  -25.3586 C   0  0  0  0  0  0  0  0  0  0  0  0
  -12.6006   12.5374  -24.9122 C   0  0  0  0  0  0  0  0  0  0  0  0
  -12.3202   12.4243  -23.5647 O   0  0  0  0  0  0  0  0  0  0  0  0
  -12.0176   11.5022  -25.7079 N   0  0  0  0  0  0  0  0  0  0  0  0
  -11.9654   11.5266  -27.0524 C   0  0  0  0  0  0  0  0  0  0  0  0
  -11.3570   10.4098  -27.4874 N   0  0  0  0  0  0  0  0  0  0  0  0
  -11.0191    9.6674  -26.3987 C   0  0  0  0  0  0  0  0  0  0  0  0
  -11.4445   10.3726  -25.2722 C   0  0  0  0  0  0  0  0  0  0  0  0
  -11.2259    9.8454  -24.0584 N   0  0  0  0  0  0  0  0  0  0  0  0
  -10.6091    8.6587  -23.9051 C   0  0  0  0  0  0  0  0  0  0  0  0
  -10.1978    7.9778  -25.0038 N   0  0  0  0  0  0  0  0  0  0  0  0
  -10.3872    8.4522  -26.2479 C   0  0  0  0  0  0  0  0  0  0  0  0
   -9.9699    7.7667  -27.4211 N   0  0  0  0  0  0  0  0  0  0  0  0
  -13.1627   14.5481  -25.9983 O   0  0  0  0  0  0  0  0  0  0  0  0
  -12.2372   15.8661  -24.1112 O   0  0  0  0  0  0  0  0  0  0  0  0
  -11.7501   14.8780  -21.4001 H   0  0  0  0  0  0  0  0  0  0  0  0
  -11.4059   13.1187  -21.3450 H   0  0  0  0  0  0  0  0  0  0  0  0
  -13.6772   13.9410  -23.1803 H   0  0  0  0  0  0  0  0  0  0  0  0
  -10.7146   14.4694  -23.7941 H   0  0  0  0  0  0  0  0  0  0  0  0
  -11.2225   13.8402  -26.0062 H   0  0  0  0  0  0  0  0  0  0  0  0
  -13.7155   12.4637  -25.0255 H   0  0  0  0  0  0  0  0  0  0  0  0
  -12.3339   12.2892  -27.7275 H   0  0  0  0  0  0  0  0  0  0  0  0
  -10.4228    8.2155  -22.9372 H   0  0  0  0  0  0  0  0  0  0  0  0
  -10.2115    6.7716  -27.6203 H   0  0  0  0  0  0  0  0  0  0  0  0
   -9.3880    8.2551  -28.1459 H   0  0  0  0  0  0  0  0  0  0  0  0
  -14.0077   14.3667  -25.5166 H   0  0  0  0  0  0  0  0  0  0  0  0
  -11.9879   16.4108  -23.3470 H   0  0  0  0  0  0  0  0  0  0  0  0
  1  2  1  0
  2  3  1  0
  3  4  1  0
  4  5  1  0
  5  6  1  0
  5  7  1  0
  7  8  1  0
  8  9  2  0
  9 10  1  0
 10 11  2  0
 11 12  1  0
 12 13  2  0
 13 14  1  0
 14 15  2  0
 15 16  1  0
  4 17  1  0
  3 18  1  0
  6  2  1  0
 11  7  1  0
 15 10  1  0
  1 19  1  0
  1 20  1  0
  2 21  1  0
  3 22  1  0
  4 23  1  0
  5 24  1  0
  8 25  1  0
 13 26  1  0
 16 27  1  0
 16 28  1  0
 17 29  1  0
 18 30  1  0
M  RAD  1   1   2
M  END
$$$$

     RDKit          3D

 30 32  0  0  0  0  0  0  0  0999 V2000
  -11.9850   15.7516  -25.1031 C   0  0  0  0  0  3  0  0  0  0  0  0
  -12.9859   14.7647  -24.6142 C   0  0  0  0  0  0  0  0  0  0  0  0
  -12.7487   14.2412  -23.2459 C   0  0  0  0  0  0  0  0  0  0  0  0
  -11.8389   13.0347  -23.4656 C   0  0  0  0  0  0  0  0  0  0  0  0
  -11.8174   12.8966  -24.9516 C   0  0  0  0  0  0  0  0  0  0  0  0
  -12.9230   13.6340  -25.4283 O   0  0  0  0  0  0  0  0  0  0  0  0
  -11.9521   11.5292  -25.4079 N   0  0  0  0  0  0  0  0  0  0  0  0
  -13.0847   10.8890  -25.7837 C   0  0  0  0  0  0  0  0  0  0  0  0
  -12.8153    9.6263  -26.1455 N   0  0  0  0  0  0  0  0  0  0  0  0
  -11.4988    9.4171  -26.0126 C   0  0  0  0  0  0  0  0  0  0  0  0
  -10.9705   10.6209  -25.5487 C   0  0  0  0  0  0  0  0  0  0  0  0
   -9.6326   10.6589  -25.3337 N   0  0  0  0  0  0  0  0  0  0  0  0
   -8.8765    9.5709  -25.5660 C   0  0  0  0  0  0  0  0  0  0  0  0
   -9.4050    8.4152  -26.0146 N   0  0  0  0  0  0  0  0  0  0  0  0
  -10.7307    8.3078  -26.2498 C   0  0  0  0  0  0  0  0  0  0  0  0
  -11.2906    7.0966  -26.7208 N   0  0  0  0  0  0  0  0  0  0  0  0
  -10.5936   13.3845  -22.9288 O   0  0  0  0  0  0  0  0  0  0  0  0
  -13.9778   13.7689  -22.7352 O   0  0  0  0  0  0  0  0  0  0  0  0
  -10.9807   15.4156  -24.8602 H   0  0  0  0  0  0  0  0  0  0  0  0
  -12.2125   16.7972  -24.9091 H   0  0  0  0  0  0  0  0  0  0  0  0
  -14.0400   15.1427  -24.7054 H   0  0  0  0  0  0  0  0  0  0  0  0
  -12.3058   14.9727  -22.5519 H   0  0  0  0  0  0  0  0  0  0  0  0
  -12.2481   12.1674  -22.9279 H   0  0  0  0  0  0  0  0  0  0  0  0
  -10.8937   13.3866  -25.3370 H   0  0  0  0  0  0  0  0  0  0  0  0
  -14.0517   11.3405  -25.7864 H   0  0  0  0  0  0  0  0  0  0  0  0
   -7.7935    9.5988  -25.3929 H   0  0  0  0  0  0  0  0  0  0  0  0
  -10.8516    6.5192  -27.4687 H   0  0  0  0  0  0  0  0  0  0  0  0
  -12.1857    6.7469  -26.3131 H   0  0  0  0  0  0  0  0  0  0  0  0
   -9.9442   13.6255  -23.6432 H   0  0  0  0  0  0  0  0  0  0  0  0
  -13.8470   13.4156  -21.8167 H   0  0  0  0  0  0  0  0  0  0  0  0
  1  2  1  0
  2  3  1  0
  3  4  1  0
  4  5  1  0
  5  6  1  0
  5  7  1  0
  7  8  1  0
  8  9  2  0
  9 10  1  0
 10 11  2  0
 11 12  1  0
 12 13  2  0
 13 14  1  0
 14 15  2  0
 15 16  1  0
  4 17  1  0
  3 18  1  0
  6  2  1  0
 11  7  1  0
 15 10  1  0
  1 19  1  0
  1 20  1  0
  2 21  1  0
  3 22  1  0
  4 23  1  0
  5 24  1  0
  8 25  1  0
 13 26  1  0
 16 27  1  0
 16 28  1  0
 17 29  1  0
 18 30  1  0
M  RAD  1   1   2
M  END
$$$$

     RDKit          3D

 30 32  0  0  0  0  0  0  0  0999 V2000
  -12.2831   14.1968  -21.7585 C   0  0  0  0  0  3  0  0  0  0  0  0
  -12.9115   13.6672  -23.0243 C   0  0  0  0  0  0  0  0  0  0  0  0
  -12.6574   14.6789  -24.1226 C   0  0  0  0  0  0  0  0  0  0  0  0
  -12.9057   13.8284  -25.3552 C   0  0  0  0  0  0  0  0  0  0  0  0
  -12.8684   12.4361  -24.7948 C   0  0  0  0  0  0  0  0  0  0  0  0
  -12.2763   12.5493  -23.5190 O   0  0  0  0  0  0  0  0  0  0  0  0
  -12.1975   11.5052  -25.6373 N   0  0  0  0  0  0  0  0  0  0  0  0
  -12.1487   11.5675  -26.9768 C   0  0  0  0  0  0  0  0  0  0  0  0
  -11.4265   10.5163  -27.4035 N   0  0  0  0  0  0  0  0  0  0  0  0
  -11.0027    9.7686  -26.3671 C   0  0  0  0  0  0  0  0  0  0  0  0
  -11.5107   10.4235  -25.2373 C   0  0  0  0  0  0  0  0  0  0  0  0
  -11.2151    9.8547  -24.0489 N   0  0  0  0  0  0  0  0  0  0  0  0
  -10.4829    8.7337  -23.9377 C   0  0  0  0  0  0  0  0  0  0  0  0
   -9.9914    8.0998  -25.0286 N   0  0  0  0  0  0  0  0  0  0  0  0
  -10.2515    8.6174  -26.2409 C   0  0  0  0  0  0  0  0  0  0  0  0
   -9.7413    7.9603  -27.3831 N   0  0  0  0  0  0  0  0  0  0  0  0
  -11.9110   14.0829  -26.2802 O   0  0  0  0  0  0  0  0  0  0  0  0
  -11.3454   15.1215  -24.1402 O   0  0  0  0  0  0  0  0  0  0  0  0
  -12.3933   13.5194  -20.8967 H   0  0  0  0  0  0  0  0  0  0  0  0
  -12.8166   15.1380  -21.5033 H   0  0  0  0  0  0  0  0  0  0  0  0
  -14.0100   13.5588  -22.9298 H   0  0  0  0  0  0  0  0  0  0  0  0
  -13.3520   15.5389  -24.0683 H   0  0  0  0  0  0  0  0  0  0  0  0
  -13.9222   14.0806  -25.7103 H   0  0  0  0  0  0  0  0  0  0  0  0
  -13.9267   12.1048  -24.6117 H   0  0  0  0  0  0  0  0  0  0  0  0
  -12.5959   12.3132  -27.6453 H   0  0  0  0  0  0  0  0  0  0  0  0
  -10.2504    8.2836  -22.9757 H   0  0  0  0  0  0  0  0  0  0  0  0
   -8.7632    8.1335  -27.6701 H   0  0  0  0  0  0  0  0  0  0  0  0
  -10.3211    7.3109  -27.9388 H   0  0  0  0  0  0  0  0  0  0  0  0
  -12.2745   14.7920  -26.8980 H   0  0  0  0  0  0  0  0  0  0  0  0
  -10.7195   14.3810  -23.9332 H   0  0  0  0  0  0  0  0  0  0  0  0
  1  2  1  0
  2  3  1  0
  3  4  1  0
  4  5  1  0
  5  6  1  0
  5  7  1  0
  7  8  1  0
  8  9  2  0
  9 10  1  0
 10 11  2  0
 11 12  1  0
 12 13  2  0
 13 14  1  0
 14 15  2  0
 15 16  1  0
  4 17  1  0
  3 18  1  0
  6  2  1  0
 11  7  1  0
 15 10  1  0
  1 19  1  0
  1 20  1  0
  2 21  1  0
  3 22  1  0
  4 23  1  0
  5 24  1  0
  8 25  1  0
 13 26  1  0
 16 27  1  0
 16 28  1  0
 17 29  1  0
 18 30  1  0
M  RAD  1   1   2
M  END
$$$$

     RDKit          3D

 30 32  0  0  0  0  0  0  0  0999 V2000
  -12.7448   13.8575  -21.7377 C   0  0  0  0  0  3  0  0  0  0  0  0
  -12.9603   13.7684  -23.2296 C   0  0  0  0  0  0  0  0  0  0  0  0
  -12.2105   14.8516  -23.9750 C   0  0  0  0  0  0  0  0  0  0  0  0
  -11.8562   14.0685  -25.2483 C   0  0  0  0  0  0  0  0  0  0  0  0
  -11.5208   12.7403  -24.5993 C   0  0  0  0  0  0  0  0  0  0  0  0
  -12.5814   12.5596  -23.7418 O   0  0  0  0  0  0  0  0  0  0  0  0
  -11.3671   11.6846  -25.5576 N   0  0  0  0  0  0  0  0  0  0  0  0
  -11.4891   11.7314  -26.8945 C   0  0  0  0  0  0  0  0  0  0  0  0
  -11.2567   10.4985  -27.3797 N   0  0  0  0  0  0  0  0  0  0  0  0
  -10.9887    9.6675  -26.3732 C   0  0  0  0  0  0  0  0  0  0  0  0
  -11.0590   10.4190  -25.2224 C   0  0  0  0  0  0  0  0  0  0  0  0
  -10.8205    9.7844  -24.0471 N   0  0  0  0  0  0  0  0  0  0  0  0
  -10.5257    8.4748  -23.9878 C   0  0  0  0  0  0  0  0  0  0  0  0
  -10.4654    7.7702  -25.1341 N   0  0  0  0  0  0  0  0  0  0  0  0
  -10.6885    8.3224  -26.3432 C   0  0  0  0  0  0  0  0  0  0  0  0
  -10.6227    7.5702  -27.5490 N   0  0  0  0  0  0  0  0  0  0  0  0
  -13.0096   13.8760  -25.9976 O   0  0  0  0  0  0  0  0  0  0  0  0
  -12.9602   15.9633  -24.2380 O   0  0  0  0  0  0  0  0  0  0  0  0
  -13.7153   13.5862  -21.2463 H   0  0  0  0  0  0  0  0  0  0  0  0
  -12.4779   14.8797  -21.4698 H   0  0  0  0  0  0  0  0  0  0  0  0
  -14.0452   13.9319  -23.4516 H   0  0  0  0  0  0  0  0  0  0  0  0
  -11.2484   15.0708  -23.4701 H   0  0  0  0  0  0  0  0  0  0  0  0
  -11.0298   14.5134  -25.7937 H   0  0  0  0  0  0  0  0  0  0  0  0
  -10.5919   12.9088  -23.9968 H   0  0  0  0  0  0  0  0  0  0  0  0
  -11.7356   12.6169  -27.4995 H   0  0  0  0  0  0  0  0  0  0  0  0
  -10.3336    7.9662  -23.0348 H   0  0  0  0  0  0  0  0  0  0  0  0
  -11.3116    6.7981  -27.6614 H   0  0  0  0  0  0  0  0  0  0  0  0
   -9.9386    7.7495  -28.3023 H   0  0  0  0  0  0  0  0  0  0  0  0
  -13.2308   14.6381  -26.5823 H   0  0  0  0  0  0  0  0  0  0  0  0
  -12.9398   16.2632  -25.1785 H   0  0  0  0  0  0  0  0  0  0  0  0
  1  2  1  0
  2  3  1  0
  3  4  1  0
  4  5  1  0
  5  6  1  0
  5  7  1  0
  7  8  1  0
  8  9  2  0
  9 10  1  0
 10 11  2  0
 11 12  1  0
 12 13  2  0
 13 14  1  0
 14 15  2  0
 15 16  1  0
  4 17  1  0
  3 18  1  0
  6  2  1  0
 11  7  1  0
 15 10  1  0
  1 19  1  0
  1 20  1  0
  2 21  1  0
  3 22  1  0
  4 23  1  0
  5 24  1  0
  8 25  1  0
 13 26  1  0
 16 27  1  0
 16 28  1  0
 17 29  1  0
 18 30  1  0
M  RAD  1   1   2
M  END
$$$$

     RDKit          3D

 30 32  0  0  0  0  0  0  0  0999 V2000
  -13.0351   15.9093  -24.6214 C   0  0  0  0  0  3  0  0  0  0  0  0
  -13.0822   14.3855  -24.7587 C   0  0  0  0  0  0  0  0  0  0  0  0
  -13.0192   13.7131  -23.4253 C   0  0  0  0  0  0  0  0  0  0  0  0
  -11.6353   13.1214  -23.4153 C   0  0  0  0  0  0  0  0  0  0  0  0
  -11.3465   12.9763  -24.8791 C   0  0  0  0  0  0  0  0  0  0  0  0
  -12.0200   13.9826  -25.5159 O   0  0  0  0  0  0  0  0  0  0  0  0
  -11.6710   11.6624  -25.3870 N   0  0  0  0  0  0  0  0  0  0  0  0
  -12.8921   11.3132  -25.8295 C   0  0  0  0  0  0  0  0  0  0  0  0
  -12.8055   10.0286  -26.2165 N   0  0  0  0  0  0  0  0  0  0  0  0
  -11.5437    9.5739  -26.0199 C   0  0  0  0  0  0  0  0  0  0  0  0
  -10.8224   10.6197  -25.4902 C   0  0  0  0  0  0  0  0  0  0  0  0
   -9.5184   10.4160  -25.2019 N   0  0  0  0  0  0  0  0  0  0  0  0
   -8.8999    9.2373  -25.4110 C   0  0  0  0  0  0  0  0  0  0  0  0
   -9.5921    8.2087  -25.9273 N   0  0  0  0  0  0  0  0  0  0  0  0
  -10.8894    8.3784  -26.2246 C   0  0  0  0  0  0  0  0  0  0  0  0
  -11.6171    7.2894  -26.7699 N   0  0  0  0  0  0  0  0  0  0  0  0
  -10.7539   14.0579  -22.8772 O   0  0  0  0  0  0  0  0  0  0  0  0
  -13.9832   12.7341  -23.2853 O   0  0  0  0  0  0  0  0  0  0  0  0
  -11.9994   16.2829  -24.6362 H   0  0  0  0  0  0  0  0  0  0  0  0
  -13.6797   16.3986  -25.3765 H   0  0  0  0  0  0  0  0  0  0  0  0
  -14.0795   14.1676  -25.2109 H   0  0  0  0  0  0  0  0  0  0  0  0
  -13.0741   14.4558  -22.5947 H   0  0  0  0  0  0  0  0  0  0  0  0
  -11.5814   12.1675  -22.8564 H   0  0  0  0  0  0  0  0  0  0  0  0
  -10.2502   13.1736  -25.0119 H   0  0  0  0  0  0  0  0  0  0  0  0
  -13.8064   11.8837  -25.8949 H   0  0  0  0  0  0  0  0  0  0  0  0
   -7.8503    9.0777  -25.1776 H   0  0  0  0  0  0  0  0  0  0  0  0
  -11.4466    7.0446  -27.7687 H   0  0  0  0  0  0  0  0  0  0  0  0
  -12.3104    6.7136  -26.2488 H   0  0  0  0  0  0  0  0  0  0  0  0
  -11.2527   14.6534  -22.2413 H   0  0  0  0  0  0  0  0  0  0  0  0
  -13.8010   12.1972  -22.4704 H   0  0  0  0  0  0  0  0  0  0  0  0
  1  2  1  0
  2  3  1  0
  3  4  1  0
  4  5  1  0
  5  6  1  0
  5  7  1  0
  7  8  1  0
  8  9  2  0
  9 10  1  0
 10 11  2  0
 11 12  1  0
 12 13  2  0
 13 14  1  0
 14 15  2  0
 15 16  1  0
  4 17  1  0
  3 18  1  0
  6  2  1  0
 11  7  1  0
 15 10  1  0
  1 19  1  0
  1 20  1  0
  2 21  1  0
  3 22  1  0
  4 23  1  0
  5 24  1  0
  8 25  1  0
 13 26  1  0
 16 27  1  0
 16 28  1  0
 17 29  1  0
 18 30  1  0
M  RAD  1   1   2
M  END
$$$$

     RDKit          3D

 30 32  0  0  0  0  0  0  0  0999 V2000
  -14.0505   14.6305  -22.8315 C   0  0  0  0  0  3  0  0  0  0  0  0
  -13.4080   14.3028  -24.1546 C   0  0  0  0  0  0  0  0  0  0  0  0
  -11.9821   14.7736  -24.2449 C   0  0  0  0  0  0  0  0  0  0  0  0
  -11.2705   13.4992  -24.7427 C   0  0  0  0  0  0  0  0  0  0  0  0
  -12.4347   12.7663  -25.2964 C   0  0  0  0  0  0  0  0  0  0  0  0
  -13.3925   12.9130  -24.2754 O   0  0  0  0  0  0  0  0  0  0  0  0
  -12.2376   11.4507  -25.7310 N   0  0  0  0  0  0  0  0  0  0  0  0
  -13.1462   10.7447  -26.4232 C   0  0  0  0  0  0  0  0  0  0  0  0
  -12.6641    9.5407  -26.6847 N   0  0  0  0  0  0  0  0  0  0  0  0
  -11.4429    9.4405  -26.1721 C   0  0  0  0  0  0  0  0  0  0  0  0
  -11.1716   10.6516  -25.5670 C   0  0  0  0  0  0  0  0  0  0  0  0
   -9.9686   10.7600  -24.9796 N   0  0  0  0  0  0  0  0  0  0  0  0
   -9.0606    9.7809  -24.9588 C   0  0  0  0  0  0  0  0  0  0  0  0
   -9.3411    8.6080  -25.5529 N   0  0  0  0  0  0  0  0  0  0  0  0
  -10.5191    8.4073  -26.1657 C   0  0  0  0  0  0  0  0  0  0  0  0
  -10.8604    7.1872  -26.8061 N   0  0  0  0  0  0  0  0  0  0  0  0
  -10.7156   12.9393  -23.6176 O   0  0  0  0  0  0  0  0  0  0  0  0
  -11.4609   15.2116  -23.0519 O   0  0  0  0  0  0  0  0  0  0  0  0
  -14.9621   14.0019  -22.7520 H   0  0  0  0  0  0  0  0  0  0  0  0
  -14.3684   15.6836  -22.7443 H   0  0  0  0  0  0  0  0  0  0  0  0
  -14.0110   14.6908  -25.0181 H   0  0  0  0  0  0  0  0  0  0  0  0
  -11.9075   15.5165  -25.0668 H   0  0  0  0  0  0  0  0  0  0  0  0
  -10.4929   13.7643  -25.4606 H   0  0  0  0  0  0  0  0  0  0  0  0
  -12.8377   13.3747  -26.1515 H   0  0  0  0  0  0  0  0  0  0  0  0
  -14.1472   11.0627  -26.7495 H   0  0  0  0  0  0  0  0  0  0  0  0
   -8.0950    9.9194  -24.4668 H   0  0  0  0  0  0  0  0  0  0  0  0
  -10.5743    6.9848  -27.7941 H   0  0  0  0  0  0  0  0  0  0  0  0
  -11.4125    6.4350  -26.3212 H   0  0  0  0  0  0  0  0  0  0  0  0
   -9.8083   13.2497  -23.4809 H   0  0  0  0  0  0  0  0  0  0  0  0
  -11.8917   14.8395  -22.2661 H   0  0  0  0  0  0  0  0  0  0  0  0
  1  2  1  0
  2  3  1  0
  3  4  1  0
  4  5  1  0
  5  6  1  0
  5  7  1  0
  7  8  1  0
  8  9  2  0
  9 10  1  0
 10 11  2  0
 11 12  1  0
 12 13  2  0
 13 14  1  0
 14 15  2  0
 15 16  1  0
  4 17  1  0
  3 18  1  0
  6  2  1  0
 11  7  1  0
 15 10  1  0
  1 19  1  0
  1 20  1  0
  2 21  1  0
  3 22  1  0
  4 23  1  0
  5 24  1  0
  8 25  1  0
 13 26  1  0
 16 27  1  0
 16 28  1  0
 17 29  1  0
 18 30  1  0
M  RAD  1   1   2
M  END
$$$$

     RDKit          3D

 30 32  0  0  0  0  0  0  0  0999 V2000
  -14.4325   14.5413  -23.6761 C   0  0  0  0  0  3  0  0  0  0  0  0
  -12.9994   14.4245  -24.1199 C   0  0  0  0  0  0  0  0  0  0  0  0
  -12.2337   13.4838  -23.2017 C   0  0  0  0  0  0  0  0  0  0  0  0
  -10.9690   13.3738  -24.0326 C   0  0  0  0  0  0  0  0  0  0  0  0
  -11.5987   13.2300  -25.4024 C   0  0  0  0  0  0  0  0  0  0  0  0
  -12.8412   13.8438  -25.3445 O   0  0  0  0  0  0  0  0  0  0  0  0
  -11.8054   11.8424  -25.7667 N   0  0  0  0  0  0  0  0  0  0  0  0
  -12.8947   11.3535  -26.3704 C   0  0  0  0  0  0  0  0  0  0  0  0
  -12.7700   10.0385  -26.5666 N   0  0  0  0  0  0  0  0  0  0  0  0
  -11.5852    9.6532  -26.0875 C   0  0  0  0  0  0  0  0  0  0  0  0
  -10.9883   10.7911  -25.5884 C   0  0  0  0  0  0  0  0  0  0  0  0
   -9.7727   10.6622  -25.0455 N   0  0  0  0  0  0  0  0  0  0  0  0
   -9.1131    9.5008  -24.9622 C   0  0  0  0  0  0  0  0  0  0  0  0
   -9.6839    8.4011  -25.4418 N   0  0  0  0  0  0  0  0  0  0  0  0
  -10.9121    8.4369  -26.0086 C   0  0  0  0  0  0  0  0  0  0  0  0
  -11.5072    7.2636  -26.5137 N   0  0  0  0  0  0  0  0  0  0  0  0
  -10.2085   14.5352  -23.9820 O   0  0  0  0  0  0  0  0  0  0  0  0
  -12.8114   12.2321  -23.1453 O   0  0  0  0  0  0  0  0  0  0  0  0
  -14.4318   15.1236  -22.7277 H   0  0  0  0  0  0  0  0  0  0  0  0
  -14.9719   15.1480  -24.4185 H   0  0  0  0  0  0  0  0  0  0  0  0
  -12.4687   15.3960  -24.0970 H   0  0  0  0  0  0  0  0  0  0  0  0
  -12.0501   13.9308  -22.2109 H   0  0  0  0  0  0  0  0  0  0  0  0
  -10.4106   12.5117  -23.6966 H   0  0  0  0  0  0  0  0  0  0  0  0
  -11.0152   13.7753  -26.1755 H   0  0  0  0  0  0  0  0  0  0  0  0
  -13.7869   11.9030  -26.6810 H   0  0  0  0  0  0  0  0  0  0  0  0
   -8.1339    9.5289  -24.4994 H   0  0  0  0  0  0  0  0  0  0  0  0
  -12.4637    7.0117  -26.1944 H   0  0  0  0  0  0  0  0  0  0  0  0
  -11.0007    6.6398  -27.2071 H   0  0  0  0  0  0  0  0  0  0  0  0
  -10.1141   14.8952  -24.9034 H   0  0  0  0  0  0  0  0  0  0  0  0
  -13.3262   12.0801  -22.3105 H   0  0  0  0  0  0  0  0  0  0  0  0
  1  2  1  0
  2  3  1  0
  3  4  1  0
  4  5  1  0
  5  6  1  0
  5  7  1  0
  7  8  1  0
  8  9  2  0
  9 10  1  0
 10 11  2  0
 11 12  1  0
 12 13  2  0
 13 14  1  0
 14 15  2  0
 15 16  1  0
  4 17  1  0
  3 18  1  0
  6  2  1  0
 11  7  1  0
 15 10  1  0
  1 19  1  0
  1 20  1  0
  2 21  1  0
  3 22  1  0
  4 23  1  0
  5 24  1  0
  8 25  1  0
 13 26  1  0
 16 27  1  0
 16 28  1  0
 17 29  1  0
 18 30  1  0
M  RAD  1   1   2
M  END
$$$$

     RDKit          3D

 30 32  0  0  0  0  0  0  0  0999 V2000
  -13.2276   13.5732  -21.8479 C   0  0  0  0  0  3  0  0  0  0  0  0
  -12.3743   13.6873  -23.0784 C   0  0  0  0  0  0  0  0  0  0  0  0
  -13.1247   14.3627  -24.2198 C   0  0  0  0  0  0  0  0  0  0  0  0
  -12.1942   14.0014  -25.3822 C   0  0  0  0  0  0  0  0  0  0  0  0
  -11.4274   12.8440  -24.8243 C   0  0  0  0  0  0  0  0  0  0  0  0
  -12.1017   12.4438  -23.6507 O   0  0  0  0  0  0  0  0  0  0  0  0
  -11.2963   11.7355  -25.7188 N   0  0  0  0  0  0  0  0  0  0  0  0
  -11.3135   11.6953  -27.0675 C   0  0  0  0  0  0  0  0  0  0  0  0
  -11.1536   10.4265  -27.4988 N   0  0  0  0  0  0  0  0  0  0  0  0
  -11.0326    9.6457  -26.4090 C   0  0  0  0  0  0  0  0  0  0  0  0
  -11.1206   10.4519  -25.3168 C   0  0  0  0  0  0  0  0  0  0  0  0
  -11.0242    9.8737  -24.0989 N   0  0  0  0  0  0  0  0  0  0  0  0
  -10.8470    8.5477  -23.9468 C   0  0  0  0  0  0  0  0  0  0  0  0
  -10.7598    7.7488  -25.0246 N   0  0  0  0  0  0  0  0  0  0  0  0
  -10.8526    8.2978  -26.2551 C   0  0  0  0  0  0  0  0  0  0  0  0
  -10.7607    7.4559  -27.3950 N   0  0  0  0  0  0  0  0  0  0  0  0
  -11.3176   15.0950  -25.5056 O   0  0  0  0  0  0  0  0  0  0  0  0
  -13.1987   15.7218  -24.0159 O   0  0  0  0  0  0  0  0  0  0  0  0
  -12.6441   13.0734  -21.0687 H   0  0  0  0  0  0  0  0  0  0  0  0
  -13.4405   14.6036  -21.4983 H   0  0  0  0  0  0  0  0  0  0  0  0
  -11.4256   14.2021  -22.9312 H   0  0  0  0  0  0  0  0  0  0  0  0
  -14.0833   13.8728  -24.4281 H   0  0  0  0  0  0  0  0  0  0  0  0
  -12.7405   13.7868  -26.2971 H   0  0  0  0  0  0  0  0  0  0  0  0
  -10.3866   13.1552  -24.5222 H   0  0  0  0  0  0  0  0  0  0  0  0
  -11.4404   12.5819  -27.6797 H   0  0  0  0  0  0  0  0  0  0  0  0
  -10.7741    8.1220  -22.9362 H   0  0  0  0  0  0  0  0  0  0  0  0
   -9.8792    7.0158  -27.7311 H   0  0  0  0  0  0  0  0  0  0  0  0
  -11.6310    7.2618  -27.9358 H   0  0  0  0  0  0  0  0  0  0  0  0
  -11.1484   15.4837  -24.6070 H   0  0  0  0  0  0  0  0  0  0  0  0
  -13.5130   16.1874  -24.8093 H   0  0  0  0  0  0  0  0  0  0  0  0
  1  2  1  0
  2  3  1  0
  3  4  1  0
  4  5  1  0
  5  6  1  0
  5  7  1  0
  7  8  1  0
  8  9  2  0
  9 10  1  0
 10 11  2  0
 11 12  1  0
 12 13  2  0
 13 14  1  0
 14 15  2  0
 15 16  1  0
  4 17  1  0
  3 18  1  0
  6  2  1  0
 11  7  1  0
 15 10  1  0
  1 19  1  0
  1 20  1  0
  2 21  1  0
  3 22  1  0
  4 23  1  0
  5 24  1  0
  8 25  1  0
 13 26  1  0
 16 27  1  0
 16 28  1  0
 17 29  1  0
 18 30  1  0
M  RAD  1   1   2
M  END
$$$$

     RDKit          3D

 30 32  0  0  0  0  0  0  0  0999 V2000
  -14.0833   15.3767  -24.2785 C   0  0  0  0  0  3  0  0  0  0  0  0
  -12.9062   14.5284  -24.7286 C   0  0  0  0  0  0  0  0  0  0  0  0
  -11.8143   14.5391  -23.6711 C   0  0  0  0  0  0  0  0  0  0  0  0
  -11.2009   13.1561  -23.9393 C   0  0  0  0  0  0  0  0  0  0  0  0
  -12.4658   12.3937  -24.2242 C   0  0  0  0  0  0  0  0  0  0  0  0
  -13.3438   13.2370  -24.8578 O   0  0  0  0  0  0  0  0  0  0  0  0
  -12.2625   11.2242  -25.0242 N   0  0  0  0  0  0  0  0  0  0  0  0
  -13.2517   10.6629  -25.7455 C   0  0  0  0  0  0  0  0  0  0  0  0
  -12.7706    9.5899  -26.3880 N   0  0  0  0  0  0  0  0  0  0  0  0
  -11.4799    9.4761  -26.0713 C   0  0  0  0  0  0  0  0  0  0  0  0
  -11.1444   10.4985  -25.2126 C   0  0  0  0  0  0  0  0  0  0  0  0
   -9.9029   10.6260  -24.7332 N   0  0  0  0  0  0  0  0  0  0  0  0
   -8.9733    9.7085  -25.1218 C   0  0  0  0  0  0  0  0  0  0  0  0
   -9.2931    8.7061  -25.9608 N   0  0  0  0  0  0  0  0  0  0  0  0
  -10.5294    8.5433  -26.4648 C   0  0  0  0  0  0  0  0  0  0  0  0
  -10.8732    7.4990  -27.3422 N   0  0  0  0  0  0  0  0  0  0  0  0
  -10.3864   13.2973  -25.0510 O   0  0  0  0  0  0  0  0  0  0  0  0
  -12.4453   14.5451  -22.4413 O   0  0  0  0  0  0  0  0  0  0  0  0
  -15.0388   14.9733  -24.6543 H   0  0  0  0  0  0  0  0  0  0  0  0
  -13.9840   16.4267  -24.6141 H   0  0  0  0  0  0  0  0  0  0  0  0
  -12.5184   14.8845  -25.7030 H   0  0  0  0  0  0  0  0  0  0  0  0
  -11.0945   15.3449  -23.8101 H   0  0  0  0  0  0  0  0  0  0  0  0
  -10.6466   12.7759  -23.0847 H   0  0  0  0  0  0  0  0  0  0  0  0
  -12.9194   12.1492  -23.2200 H   0  0  0  0  0  0  0  0  0  0  0  0
  -14.2953   10.9839  -25.8325 H   0  0  0  0  0  0  0  0  0  0  0  0
   -7.9509    9.7498  -24.7739 H   0  0  0  0  0  0  0  0  0  0  0  0
  -11.7440    7.5264  -27.8913 H   0  0  0  0  0  0  0  0  0  0  0  0
  -10.2360    6.6827  -27.4390 H   0  0  0  0  0  0  0  0  0  0  0  0
  -10.8695   13.2856  -25.9084 H   0  0  0  0  0  0  0  0  0  0  0  0
  -13.3452   14.1167  -22.5085 H   0  0  0  0  0  0  0  0  0  0  0  0
  1  2  1  0
  2  3  1  0
  3  4  1  0
  4  5  1  0
  5  6  1  0
  5  7  1  0
  7  8  1  0
  8  9  2  0
  9 10  1  0
 10 11  2  0
 11 12  1  0
 12 13  2  0
 13 14  1  0
 14 15  2  0
 15 16  1  0
  4 17  1  0
  3 18  1  0
  6  2  1  0
 11  7  1  0
 15 10  1  0
  1 19  1  0
  1 20  1  0
  2 21  1  0
  3 22  1  0
  4 23  1  0
  5 24  1  0
  8 25  1  0
 13 26  1  0
 16 27  1  0
 16 28  1  0
 17 29  1  0
 18 30  1  0
M  RAD  1   1   2
M  END
$$$$

     RDKit          3D

 30 32  0  0  0  0  0  0  0  0999 V2000
  -13.9804   15.2060  -24.7691 C   0  0  0  0  0  3  0  0  0  0  0  0
  -12.5816   14.6500  -24.9101 C   0  0  0  0  0  0  0  0  0  0  0  0
  -11.9057   14.4631  -23.5857 C   0  0  0  0  0  0  0  0  0  0  0  0
  -11.7604   12.9583  -23.4933 C   0  0  0  0  0  0  0  0  0  0  0  0
  -12.7216   12.4876  -24.5693 C   0  0  0  0  0  0  0  0  0  0  0  0
  -12.5563   13.4275  -25.5720 O   0  0  0  0  0  0  0  0  0  0  0  0
  -12.4407   11.1472  -25.0022 N   0  0  0  0  0  0  0  0  0  0  0  0
  -13.2928   10.1002  -24.9525 C   0  0  0  0  0  0  0  0  0  0  0  0
  -12.7167    9.0008  -25.4327 N   0  0  0  0  0  0  0  0  0  0  0  0
  -11.4601    9.3086  -25.8115 C   0  0  0  0  0  0  0  0  0  0  0  0
  -11.3091   10.6513  -25.5344 C   0  0  0  0  0  0  0  0  0  0  0  0
  -10.1334   11.2415  -25.8142 N   0  0  0  0  0  0  0  0  0  0  0  0
   -9.1479   10.5061  -26.3526 C   0  0  0  0  0  0  0  0  0  0  0  0
   -9.2869    9.1890  -26.6278 N   0  0  0  0  0  0  0  0  0  0  0  0
  -10.4514    8.5381  -26.3671 C   0  0  0  0  0  0  0  0  0  0  0  0
  -10.6036    7.1587  -26.6528 N   0  0  0  0  0  0  0  0  0  0  0  0
  -12.1120   12.4729  -22.2376 O   0  0  0  0  0  0  0  0  0  0  0  0
  -10.6663   15.1010  -23.5712 O   0  0  0  0  0  0  0  0  0  0  0  0
  -14.0805   16.2228  -25.1912 H   0  0  0  0  0  0  0  0  0  0  0  0
  -14.3265   15.1899  -23.7042 H   0  0  0  0  0  0  0  0  0  0  0  0
  -12.0029   15.3815  -25.5257 H   0  0  0  0  0  0  0  0  0  0  0  0
  -12.5155   14.8113  -22.7243 H   0  0  0  0  0  0  0  0  0  0  0  0
  -10.7188   12.6576  -23.7171 H   0  0  0  0  0  0  0  0  0  0  0  0
  -13.7337   12.5530  -24.1635 H   0  0  0  0  0  0  0  0  0  0  0  0
  -14.3205   10.1692  -24.5634 H   0  0  0  0  0  0  0  0  0  0  0  0
   -8.2184   10.9824  -26.5714 H   0  0  0  0  0  0  0  0  0  0  0  0
  -10.7764    6.4818  -25.8824 H   0  0  0  0  0  0  0  0  0  0  0  0
  -10.5491    6.7836  -27.6209 H   0  0  0  0  0  0  0  0  0  0  0  0
  -11.3237   12.2343  -21.6905 H   0  0  0  0  0  0  0  0  0  0  0  0
  -10.7403   15.9483  -24.0812 H   0  0  0  0  0  0  0  0  0  0  0  0
  1  2  1  0
  2  3  1  0
  3  4  1  0
  4  5  1  0
  5  6  1  0
  5  7  1  0
  7  8  1  0
  8  9  2  0
  9 10  1  0
 10 11  2  0
 11 12  1  0
 12 13  2  0
 13 14  1  0
 14 15  2  0
 15 16  1  0
  4 17  1  0
  3 18  1  0
  6  2  1  0
 11  7  1  0
 15 10  1  0
  1 19  1  0
  1 20  1  0
  2 21  1  0
  3 22  1  0
  4 23  1  0
  5 24  1  0
  8 25  1  0
 13 26  1  0
 16 27  1  0
 16 28  1  0
 17 29  1  0
 18 30  1  0
M  RAD  1   1   2
M  END
$$$$

     RDKit          3D

 30 32  0  0  0  0  0  0  0  0999 V2000
  -11.0095   15.6925  -23.6891 C   0  0  0  0  0  3  0  0  0  0  0  0
  -11.6635   14.4886  -24.3674 C   0  0  0  0  0  0  0  0  0  0  0  0
  -13.0952   14.3949  -23.9146 C   0  0  0  0  0  0  0  0  0  0  0  0
  -13.2967   12.9221  -23.7656 C   0  0  0  0  0  0  0  0  0  0  0  0
  -11.9135   12.3326  -23.8404 C   0  0  0  0  0  0  0  0  0  0  0  0
  -11.0121   13.3711  -23.9153 O   0  0  0  0  0  0  0  0  0  0  0  0
  -11.7501   11.5087  -25.0093 N   0  0  0  0  0  0  0  0  0  0  0  0
  -12.2256   11.7200  -26.2356 C   0  0  0  0  0  0  0  0  0  0  0  0
  -11.8479   10.7123  -27.0393 N   0  0  0  0  0  0  0  0  0  0  0  0
  -11.1185    9.8420  -26.3145 C   0  0  0  0  0  0  0  0  0  0  0  0
  -11.0639   10.3537  -25.0392 C   0  0  0  0  0  0  0  0  0  0  0  0
  -10.3767    9.6554  -24.0987 N   0  0  0  0  0  0  0  0  0  0  0  0
   -9.7665    8.5018  -24.3932 C   0  0  0  0  0  0  0  0  0  0  0  0
   -9.8061    7.9818  -25.6332 N   0  0  0  0  0  0  0  0  0  0  0  0
  -10.4783    8.6499  -26.5848 C   0  0  0  0  0  0  0  0  0  0  0  0
  -10.5560    8.1486  -27.9194 N   0  0  0  0  0  0  0  0  0  0  0  0
  -14.1592   12.3671  -24.6808 O   0  0  0  0  0  0  0  0  0  0  0  0
  -13.9877   14.9648  -24.8153 O   0  0  0  0  0  0  0  0  0  0  0  0
  -10.5765   15.3629  -22.7144 H   0  0  0  0  0  0  0  0  0  0  0  0
  -11.7906   16.4513  -23.4143 H   0  0  0  0  0  0  0  0  0  0  0  0
  -11.6209   14.6173  -25.4617 H   0  0  0  0  0  0  0  0  0  0  0  0
  -13.1591   14.8979  -22.9114 H   0  0  0  0  0  0  0  0  0  0  0  0
  -13.7235   12.7169  -22.7492 H   0  0  0  0  0  0  0  0  0  0  0  0
  -11.6947   11.7416  -22.9199 H   0  0  0  0  0  0  0  0  0  0  0  0
  -12.8356   12.5633  -26.5973 H   0  0  0  0  0  0  0  0  0  0  0  0
   -9.2147    7.9377  -23.6455 H   0  0  0  0  0  0  0  0  0  0  0  0
  -10.9922    7.2394  -28.0910 H   0  0  0  0  0  0  0  0  0  0  0  0
  -10.1693    8.7112  -28.7025 H   0  0  0  0  0  0  0  0  0  0  0  0
  -15.0899   12.2583  -24.3417 H   0  0  0  0  0  0  0  0  0  0  0  0
  -13.6126   15.7575  -25.2597 H   0  0  0  0  0  0  0  0  0  0  0  0
  1  2  1  0
  2  3  1  0
  3  4  1  0
  4  5  1  0
  5  6  1  0
  5  7  1  0
  7  8  1  0
  8  9  2  0
  9 10  1  0
 10 11  2  0
 11 12  1  0
 12 13  2  0
 13 14  1  0
 14 15  2  0
 15 16  1  0
  4 17  1  0
  3 18  1  0
  6  2  1  0
 11  7  1  0
 15 10  1  0
  1 19  1  0
  1 20  1  0
  2 21  1  0
  3 22  1  0
  4 23  1  0
  5 24  1  0
  8 25  1  0
 13 26  1  0
 16 27  1  0
 16 28  1  0
 17 29  1  0
 18 30  1  0
M  RAD  1   1   2
M  END
$$$$

     RDKit          3D

 30 32  0  0  0  0  0  0  0  0999 V2000
  -13.9298   15.5295  -24.7865 C   0  0  0  0  0  3  0  0  0  0  0  0
  -12.5589   14.8801  -24.8718 C   0  0  0  0  0  0  0  0  0  0  0  0
  -11.9732   14.6167  -23.5058 C   0  0  0  0  0  0  0  0  0  0  0  0
  -11.5136   13.1655  -23.6017 C   0  0  0  0  0  0  0  0  0  0  0  0
  -11.5972   12.8802  -25.0793 C   0  0  0  0  0  0  0  0  0  0  0  0
  -12.7367   13.6293  -25.4373 O   0  0  0  0  0  0  0  0  0  0  0  0
  -11.8240   11.4954  -25.3802 N   0  0  0  0  0  0  0  0  0  0  0  0
  -13.0284   10.8848  -25.4524 C   0  0  0  0  0  0  0  0  0  0  0  0
  -12.8137    9.5896  -25.7573 N   0  0  0  0  0  0  0  0  0  0  0  0
  -11.4833    9.3812  -25.8773 C   0  0  0  0  0  0  0  0  0  0  0  0
  -10.8518   10.5848  -25.6396 C   0  0  0  0  0  0  0  0  0  0  0  0
   -9.4986   10.6538  -25.6981 N   0  0  0  0  0  0  0  0  0  0  0  0
   -8.7343    9.5869  -25.9814 C   0  0  0  0  0  0  0  0  0  0  0  0
   -9.3446    8.4116  -26.2139 N   0  0  0  0  0  0  0  0  0  0  0  0
  -10.6989    8.2764  -26.1703 C   0  0  0  0  0  0  0  0  0  0  0  0
  -11.3030    7.0184  -26.4219 N   0  0  0  0  0  0  0  0  0  0  0  0
  -12.3004   12.3114  -22.8665 O   0  0  0  0  0  0  0  0  0  0  0  0
  -12.9367   14.7122  -22.5148 O   0  0  0  0  0  0  0  0  0  0  0  0
  -14.4150   15.3486  -25.7829 H   0  0  0  0  0  0  0  0  0  0  0  0
  -13.8654   16.6232  -24.6199 H   0  0  0  0  0  0  0  0  0  0  0  0
  -11.8432   15.4929  -25.4658 H   0  0  0  0  0  0  0  0  0  0  0  0
  -11.1114   15.2801  -23.3373 H   0  0  0  0  0  0  0  0  0  0  0  0
  -10.4820   13.1175  -23.2037 H   0  0  0  0  0  0  0  0  0  0  0  0
  -10.7549   13.3126  -25.6411 H   0  0  0  0  0  0  0  0  0  0  0  0
  -13.9748   11.3890  -25.2864 H   0  0  0  0  0  0  0  0  0  0  0  0
   -7.6542    9.6120  -26.0349 H   0  0  0  0  0  0  0  0  0  0  0  0
  -12.2105    6.7538  -25.9589 H   0  0  0  0  0  0  0  0  0  0  0  0
  -10.8625    6.3103  -27.0794 H   0  0  0  0  0  0  0  0  0  0  0  0
  -13.0073   12.7959  -22.3415 H   0  0  0  0  0  0  0  0  0  0  0  0
  -12.4828   14.7231  -21.6315 H   0  0  0  0  0  0  0  0  0  0  0  0
  1  2  1  0
  2  3  1  0
  3  4  1  0
  4  5  1  0
  5  6  1  0
  5  7  1  0
  7  8  1  0
  8  9  2  0
  9 10  1  0
 10 11  2  0
 11 12  1  0
 12 13  2  0
 13 14  1  0
 14 15  2  0
 15 16  1  0
  4 17  1  0
  3 18  1  0
  6  2  1  0
 11  7  1  0
 15 10  1  0
  1 19  1  0
  1 20  1  0
  2 21  1  0
  3 22  1  0
  4 23  1  0
  5 24  1  0
  8 25  1  0
 13 26  1  0
 16 27  1  0
 16 28  1  0
 17 29  1  0
 18 30  1  0
M  RAD  1   1   2
M  END
$$$$

     RDKit          3D

 30 32  0  0  0  0  0  0  0  0999 V2000
  -13.1165   15.3362  -25.7544 C   0  0  0  0  0  3  0  0  0  0  0  0
  -12.9300   14.3733  -24.6283 C   0  0  0  0  0  0  0  0  0  0  0  0
  -11.4705   14.2220  -24.2945 C   0  0  0  0  0  0  0  0  0  0  0  0
  -11.4840   12.8843  -23.5443 C   0  0  0  0  0  0  0  0  0  0  0  0
  -12.7112   12.2226  -24.0805 C   0  0  0  0  0  0  0  0  0  0  0  0
  -13.2647   13.0812  -25.0382 O   0  0  0  0  0  0  0  0  0  0  0  0
  -12.4660   10.9159  -24.6437 N   0  0  0  0  0  0  0  0  0  0  0  0
  -13.2213    9.8004  -24.5392 C   0  0  0  0  0  0  0  0  0  0  0  0
  -12.6144    8.8078  -25.2223 N   0  0  0  0  0  0  0  0  0  0  0  0
  -11.4857    9.2906  -25.7540 C   0  0  0  0  0  0  0  0  0  0  0  0
  -11.3859   10.6143  -25.3948 C   0  0  0  0  0  0  0  0  0  0  0  0
  -10.3190   11.3171  -25.8193 N   0  0  0  0  0  0  0  0  0  0  0  0
   -9.3467   10.7948  -26.5750 C   0  0  0  0  0  0  0  0  0  0  0  0
   -9.4664    9.4893  -26.9164 N   0  0  0  0  0  0  0  0  0  0  0  0
  -10.5105    8.7350  -26.5220 C   0  0  0  0  0  0  0  0  0  0  0  0
  -10.6217    7.3543  -26.8924 N   0  0  0  0  0  0  0  0  0  0  0  0
  -11.7130   13.1865  -22.2016 O   0  0  0  0  0  0  0  0  0  0  0  0
  -10.9995   15.1822  -23.4351 O   0  0  0  0  0  0  0  0  0  0  0  0
  -14.1553   15.5928  -25.9505 H   0  0  0  0  0  0  0  0  0  0  0  0
  -12.4124   16.1740  -25.7615 H   0  0  0  0  0  0  0  0  0  0  0  0
  -13.4672   14.6080  -23.7142 H   0  0  0  0  0  0  0  0  0  0  0  0
  -10.8396   14.0590  -25.1828 H   0  0  0  0  0  0  0  0  0  0  0  0
  -10.5580   12.3301  -23.6712 H   0  0  0  0  0  0  0  0  0  0  0  0
  -13.4963   12.0888  -23.3007 H   0  0  0  0  0  0  0  0  0  0  0  0
  -14.1518    9.7350  -23.9952 H   0  0  0  0  0  0  0  0  0  0  0  0
   -8.4863   11.3612  -26.9175 H   0  0  0  0  0  0  0  0  0  0  0  0
  -11.2881    7.0778  -27.6383 H   0  0  0  0  0  0  0  0  0  0  0  0
  -10.0169    6.6818  -26.3855 H   0  0  0  0  0  0  0  0  0  0  0  0
  -12.6542   13.0308  -21.9281 H   0  0  0  0  0  0  0  0  0  0  0  0
  -10.0822   14.9294  -23.1702 H   0  0  0  0  0  0  0  0  0  0  0  0
  1  2  1  0
  2  3  1  0
  3  4  1  0
  4  5  1  0
  5  6  1  0
  5  7  1  0
  7  8  1  0
  8  9  2  0
  9 10  1  0
 10 11  2  0
 11 12  1  0
 12 13  2  0
 13 14  1  0
 14 15  2  0
 15 16  1  0
  4 17  1  0
  3 18  1  0
  6  2  1  0
 11  7  1  0
 15 10  1  0
  1 19  1  0
  1 20  1  0
  2 21  1  0
  3 22  1  0
  4 23  1  0
  5 24  1  0
  8 25  1  0
 13 26  1  0
 16 27  1  0
 16 28  1  0
 17 29  1  0
 18 30  1  0
M  RAD  1   1   2
M  END
$$$$

     RDKit          3D

 30 32  0  0  0  0  0  0  0  0999 V2000
  -13.8506   15.2167  -23.5754 C   0  0  0  0  0  3  0  0  0  0  0  0
  -13.4877   13.9670  -24.3834 C   0  0  0  0  0  0  0  0  0  0  0  0
  -12.0286   14.1516  -24.7800 C   0  0  0  0  0  0  0  0  0  0  0  0
  -11.3684   13.3696  -23.6343 C   0  0  0  0  0  0  0  0  0  0  0  0
  -12.3439   12.2078  -23.5656 C   0  0  0  0  0  0  0  0  0  0  0  0
  -13.5607   12.8852  -23.5495 O   0  0  0  0  0  0  0  0  0  0  0  0
  -12.2587   11.3313  -24.6985 N   0  0  0  0  0  0  0  0  0  0  0  0
  -13.2191   11.1345  -25.6098 C   0  0  0  0  0  0  0  0  0  0  0  0
  -12.7358   10.2470  -26.4894 N   0  0  0  0  0  0  0  0  0  0  0  0
  -11.4971    9.8812  -26.1545 C   0  0  0  0  0  0  0  0  0  0  0  0
  -11.1971   10.5788  -25.0069 C   0  0  0  0  0  0  0  0  0  0  0  0
   -9.9722   10.3879  -24.4432 N   0  0  0  0  0  0  0  0  0  0  0  0
   -9.0456    9.5600  -24.9439 C   0  0  0  0  0  0  0  0  0  0  0  0
   -9.3495    8.8853  -26.0631 N   0  0  0  0  0  0  0  0  0  0  0  0
  -10.5406    9.0329  -26.6626 C   0  0  0  0  0  0  0  0  0  0  0  0
  -10.8206    8.3029  -27.8410 N   0  0  0  0  0  0  0  0  0  0  0  0
  -10.0830   13.0064  -23.9179 O   0  0  0  0  0  0  0  0  0  0  0  0
  -11.7678   13.4619  -25.9371 O   0  0  0  0  0  0  0  0  0  0  0  0
  -14.8823   15.0697  -23.1890 H   0  0  0  0  0  0  0  0  0  0  0  0
  -13.9033   16.0620  -24.2918 H   0  0  0  0  0  0  0  0  0  0  0  0
  -14.1327   13.9222  -25.2588 H   0  0  0  0  0  0  0  0  0  0  0  0
  -11.7176   15.2012  -24.7829 H   0  0  0  0  0  0  0  0  0  0  0  0
  -11.4893   13.9447  -22.7035 H   0  0  0  0  0  0  0  0  0  0  0  0
  -12.2160   11.6430  -22.6195 H   0  0  0  0  0  0  0  0  0  0  0  0
  -14.2077   11.5665  -25.6862 H   0  0  0  0  0  0  0  0  0  0  0  0
   -8.0691    9.4196  -24.4785 H   0  0  0  0  0  0  0  0  0  0  0  0
  -10.9065    8.7176  -28.7825 H   0  0  0  0  0  0  0  0  0  0  0  0
  -10.9503    7.2686  -27.7545 H   0  0  0  0  0  0  0  0  0  0  0  0
   -9.4844   13.7453  -23.6366 H   0  0  0  0  0  0  0  0  0  0  0  0
  -12.3237   13.7852  -26.7066 H   0  0  0  0  0  0  0  0  0  0  0  0
  1  2  1  0
  2  3  1  0
  3  4  1  0
  4  5  1  0
  5  6  1  0
  5  7  1  0
  7  8  1  0
  8  9  2  0
  9 10  1  0
 10 11  2  0
 11 12  1  0
 12 13  2  0
 13 14  1  0
 14 15  2  0
 15 16  1  0
  4 17  1  0
  3 18  1  0
  6  2  1  0
 11  7  1  0
 15 10  1  0
  1 19  1  0
  1 20  1  0
  2 21  1  0
  3 22  1  0
  4 23  1  0
  5 24  1  0
  8 25  1  0
 13 26  1  0
 16 27  1  0
 16 28  1  0
 17 29  1  0
 18 30  1  0
M  RAD  1   1   2
M  END
$$$$

     RDKit          3D

 30 32  0  0  0  0  0  0  0  0999 V2000
  -13.9140   14.1383  -23.4158 C   0  0  0  0  0  3  0  0  0  0  0  0
  -12.5927   13.6473  -22.8933 C   0  0  0  0  0  0  0  0  0  0  0  0
  -11.4623   14.3584  -23.6086 C   0  0  0  0  0  0  0  0  0  0  0  0
  -11.5723   13.7803  -25.0032 C   0  0  0  0  0  0  0  0  0  0  0  0
  -12.4943   12.5949  -24.7727 C   0  0  0  0  0  0  0  0  0  0  0  0
  -12.4294   12.3354  -23.3967 O   0  0  0  0  0  0  0  0  0  0  0  0
  -12.1477   11.4561  -25.5720 N   0  0  0  0  0  0  0  0  0  0  0  0
  -12.6378   11.2309  -26.8094 C   0  0  0  0  0  0  0  0  0  0  0  0
  -12.1312   10.0889  -27.3036 N   0  0  0  0  0  0  0  0  0  0  0  0
  -11.3189    9.5912  -26.3765 C   0  0  0  0  0  0  0  0  0  0  0  0
  -11.3349   10.4497  -25.3000 C   0  0  0  0  0  0  0  0  0  0  0  0
  -10.5905   10.1745  -24.2169 N   0  0  0  0  0  0  0  0  0  0  0  0
   -9.8252    9.0742  -24.1579 C   0  0  0  0  0  0  0  0  0  0  0  0
   -9.8017    8.2283  -25.2033 N   0  0  0  0  0  0  0  0  0  0  0  0
  -10.5231    8.4570  -26.3021 C   0  0  0  0  0  0  0  0  0  0  0  0
  -10.5354    7.5975  -27.4344 N   0  0  0  0  0  0  0  0  0  0  0  0
  -12.1603   14.6663  -25.8820 O   0  0  0  0  0  0  0  0  0  0  0  0
  -11.6552   15.7386  -23.6075 O   0  0  0  0  0  0  0  0  0  0  0  0
  -14.2152   15.1089  -23.0230 H   0  0  0  0  0  0  0  0  0  0  0  0
  -14.6838   13.3489  -23.3118 H   0  0  0  0  0  0  0  0  0  0  0  0
  -12.5024   13.6808  -21.7984 H   0  0  0  0  0  0  0  0  0  0  0  0
  -10.4977   14.0704  -23.1474 H   0  0  0  0  0  0  0  0  0  0  0  0
  -10.5670   13.4370  -25.3558 H   0  0  0  0  0  0  0  0  0  0  0  0
  -13.5536   12.8555  -24.9805 H   0  0  0  0  0  0  0  0  0  0  0  0
  -13.3421   11.8795  -27.3332 H   0  0  0  0  0  0  0  0  0  0  0  0
   -9.2124    8.8257  -23.2945 H   0  0  0  0  0  0  0  0  0  0  0  0
   -9.6470    7.3313  -27.8817 H   0  0  0  0  0  0  0  0  0  0  0  0
  -11.4469    7.2354  -27.8135 H   0  0  0  0  0  0  0  0  0  0  0  0
  -11.7351   14.5175  -26.7837 H   0  0  0  0  0  0  0  0  0  0  0  0
  -10.8242   16.1560  -23.8877 H   0  0  0  0  0  0  0  0  0  0  0  0
  1  2  1  0
  2  3  1  0
  3  4  1  0
  4  5  1  0
  5  6  1  0
  5  7  1  0
  7  8  1  0
  8  9  2  0
  9 10  1  0
 10 11  2  0
 11 12  1  0
 12 13  2  0
 13 14  1  0
 14 15  2  0
 15 16  1  0
  4 17  1  0
  3 18  1  0
  6  2  1  0
 11  7  1  0
 15 10  1  0
  1 19  1  0
  1 20  1  0
  2 21  1  0
  3 22  1  0
  4 23  1  0
  5 24  1  0
  8 25  1  0
 13 26  1  0
 16 27  1  0
 16 28  1  0
 17 29  1  0
 18 30  1  0
M  RAD  1   1   2
M  END
$$$$

     RDKit          3D

 30 32  0  0  0  0  0  0  0  0999 V2000
  -14.0655   12.3966  -23.8115 C   0  0  0  0  0  3  0  0  0  0  0  0
  -13.2475   13.6471  -24.0913 C   0  0  0  0  0  0  0  0  0  0  0  0
  -11.9774   13.5535  -23.3001 C   0  0  0  0  0  0  0  0  0  0  0  0
  -10.9208   13.5785  -24.3795 C   0  0  0  0  0  0  0  0  0  0  0  0
  -11.6622   13.2465  -25.6183 C   0  0  0  0  0  0  0  0  0  0  0  0
  -12.9192   13.7956  -25.4129 O   0  0  0  0  0  0  0  0  0  0  0  0
  -11.8144   11.8431  -25.8792 N   0  0  0  0  0  0  0  0  0  0  0  0
  -12.8710   11.3350  -26.5578 C   0  0  0  0  0  0  0  0  0  0  0  0
  -12.7519   10.0133  -26.6505 N   0  0  0  0  0  0  0  0  0  0  0  0
  -11.6317    9.6302  -26.0443 C   0  0  0  0  0  0  0  0  0  0  0  0
  -11.0481   10.7953  -25.5609 C   0  0  0  0  0  0  0  0  0  0  0  0
   -9.9002   10.7204  -24.9006 N   0  0  0  0  0  0  0  0  0  0  0  0
   -9.3304    9.5162  -24.7161 C   0  0  0  0  0  0  0  0  0  0  0  0
   -9.8842    8.3743  -25.1792 N   0  0  0  0  0  0  0  0  0  0  0  0
  -11.0593    8.3881  -25.8628 C   0  0  0  0  0  0  0  0  0  0  0  0
  -11.6550    7.1914  -26.3571 N   0  0  0  0  0  0  0  0  0  0  0  0
  -10.4917   14.9229  -24.4777 O   0  0  0  0  0  0  0  0  0  0  0  0
  -11.8965   14.6600  -22.4559 O   0  0  0  0  0  0  0  0  0  0  0  0
  -14.8495   12.3230  -24.5727 H   0  0  0  0  0  0  0  0  0  0  0  0
  -14.5759   12.5800  -22.8239 H   0  0  0  0  0  0  0  0  0  0  0  0
  -13.8440   14.5516  -23.7943 H   0  0  0  0  0  0  0  0  0  0  0  0
  -11.9189   12.6469  -22.6702 H   0  0  0  0  0  0  0  0  0  0  0  0
  -10.0421   12.9776  -24.1608 H   0  0  0  0  0  0  0  0  0  0  0  0
  -11.2119   13.7907  -26.4751 H   0  0  0  0  0  0  0  0  0  0  0  0
  -13.6959   11.8917  -26.9706 H   0  0  0  0  0  0  0  0  0  0  0  0
   -8.3874    9.3945  -24.1811 H   0  0  0  0  0  0  0  0  0  0  0  0
  -11.0723    6.3762  -26.7024 H   0  0  0  0  0  0  0  0  0  0  0  0
  -12.6883    7.0539  -26.4058 H   0  0  0  0  0  0  0  0  0  0  0  0
  -10.4791   15.2186  -25.4174 H   0  0  0  0  0  0  0  0  0  0  0  0
  -10.9969   15.0723  -22.4676 H   0  0  0  0  0  0  0  0  0  0  0  0
  1  2  1  0
  2  3  1  0
  3  4  1  0
  4  5  1  0
  5  6  1  0
  5  7  1  0
  7  8  1  0
  8  9  2  0
  9 10  1  0
 10 11  2  0
 11 12  1  0
 12 13  2  0
 13 14  1  0
 14 15  2  0
 15 16  1  0
  4 17  1  0
  3 18  1  0
  6  2  1  0
 11  7  1  0
 15 10  1  0
  1 19  1  0
  1 20  1  0
  2 21  1  0
  3 22  1  0
  4 23  1  0
  5 24  1  0
  8 25  1  0
 13 26  1  0
 16 27  1  0
 16 28  1  0
 17 29  1  0
 18 30  1  0
M  RAD  1   1   2
M  END
$$$$

     RDKit          3D

 30 32  0  0  0  0  0  0  0  0999 V2000
  -13.6838   15.7983  -24.8311 C   0  0  0  0  0  3  0  0  0  0  0  0
  -12.5618   14.8279  -24.7147 C   0  0  0  0  0  0  0  0  0  0  0  0
  -12.3361   14.3385  -23.2928 C   0  0  0  0  0  0  0  0  0  0  0  0
  -11.7017   12.9740  -23.5370 C   0  0  0  0  0  0  0  0  0  0  0  0
  -11.8379   12.8213  -25.0295 C   0  0  0  0  0  0  0  0  0  0  0  0
  -12.9292   13.6195  -25.3495 O   0  0  0  0  0  0  0  0  0  0  0  0
  -12.0024   11.4515  -25.4217 N   0  0  0  0  0  0  0  0  0  0  0  0
  -13.1746   10.8008  -25.6707 C   0  0  0  0  0  0  0  0  0  0  0  0
  -12.8248    9.5441  -26.0017 N   0  0  0  0  0  0  0  0  0  0  0  0
  -11.4914    9.3950  -25.9670 C   0  0  0  0  0  0  0  0  0  0  0  0
  -10.9672   10.6097  -25.5976 C   0  0  0  0  0  0  0  0  0  0  0  0
   -9.6226   10.7252  -25.4883 N   0  0  0  0  0  0  0  0  0  0  0  0
   -8.8028    9.6845  -25.7321 C   0  0  0  0  0  0  0  0  0  0  0  0
   -9.3341    8.4963  -26.0945 N   0  0  0  0  0  0  0  0  0  0  0  0
  -10.6639    8.3208  -26.2197 C   0  0  0  0  0  0  0  0  0  0  0  0
  -11.2630    7.0956  -26.5964 N   0  0  0  0  0  0  0  0  0  0  0  0
  -10.3921   12.9262  -23.1026 O   0  0  0  0  0  0  0  0  0  0  0  0
  -13.5378   14.1787  -22.6091 O   0  0  0  0  0  0  0  0  0  0  0  0
  -14.6748   15.3508  -24.6873 H   0  0  0  0  0  0  0  0  0  0  0  0
  -13.4931   16.6925  -24.2096 H   0  0  0  0  0  0  0  0  0  0  0  0
  -11.6332   15.2329  -25.1115 H   0  0  0  0  0  0  0  0  0  0  0  0
  -11.6303   14.9926  -22.7405 H   0  0  0  0  0  0  0  0  0  0  0  0
  -12.2752   12.1715  -23.0113 H   0  0  0  0  0  0  0  0  0  0  0  0
  -10.9396   13.2200  -25.5452 H   0  0  0  0  0  0  0  0  0  0  0  0
  -14.1571   11.2501  -25.6015 H   0  0  0  0  0  0  0  0  0  0  0  0
   -7.7141    9.7732  -25.6449 H   0  0  0  0  0  0  0  0  0  0  0  0
  -11.6465    6.8855  -27.5409 H   0  0  0  0  0  0  0  0  0  0  0  0
  -11.3293    6.3418  -25.8811 H   0  0  0  0  0  0  0  0  0  0  0  0
   -9.8530   13.6359  -23.5016 H   0  0  0  0  0  0  0  0  0  0  0  0
  -13.9102   13.2977  -22.9095 H   0  0  0  0  0  0  0  0  0  0  0  0
  1  2  1  0
  2  3  1  0
  3  4  1  0
  4  5  1  0
  5  6  1  0
  5  7  1  0
  7  8  1  0
  8  9  2  0
  9 10  1  0
 10 11  2  0
 11 12  1  0
 12 13  2  0
 13 14  1  0
 14 15  2  0
 15 16  1  0
  4 17  1  0
  3 18  1  0
  6  2  1  0
 11  7  1  0
 15 10  1  0
  1 19  1  0
  1 20  1  0
  2 21  1  0
  3 22  1  0
  4 23  1  0
  5 24  1  0
  8 25  1  0
 13 26  1  0
 16 27  1  0
 16 28  1  0
 17 29  1  0
 18 30  1  0
M  RAD  1   1   2
M  END
$$$$

     RDKit          3D

 30 32  0  0  0  0  0  0  0  0999 V2000
  -13.0344   13.8719  -22.0102 C   0  0  0  0  0  3  0  0  0  0  0  0
  -11.9290   13.9725  -23.0651 C   0  0  0  0  0  0  0  0  0  0  0  0
  -12.3144   14.8878  -24.1817 C   0  0  0  0  0  0  0  0  0  0  0  0
  -12.3249   13.9366  -25.3844 C   0  0  0  0  0  0  0  0  0  0  0  0
  -11.2775   12.9415  -24.8744 C   0  0  0  0  0  0  0  0  0  0  0  0
  -11.7284   12.7073  -23.6005 O   0  0  0  0  0  0  0  0  0  0  0  0
  -11.2027   11.7875  -25.7034 N   0  0  0  0  0  0  0  0  0  0  0  0
  -11.3181   11.7751  -27.0376 C   0  0  0  0  0  0  0  0  0  0  0  0
  -11.1932   10.4996  -27.4714 N   0  0  0  0  0  0  0  0  0  0  0  0
  -10.9949    9.6748  -26.4132 C   0  0  0  0  0  0  0  0  0  0  0  0
  -11.0071   10.5281  -25.3088 C   0  0  0  0  0  0  0  0  0  0  0  0
  -10.8278    9.9492  -24.1081 N   0  0  0  0  0  0  0  0  0  0  0  0
  -10.6477    8.6372  -23.9677 C   0  0  0  0  0  0  0  0  0  0  0  0
  -10.6387    7.8325  -25.0370 N   0  0  0  0  0  0  0  0  0  0  0  0
  -10.8094    8.3234  -26.2686 C   0  0  0  0  0  0  0  0  0  0  0  0
  -10.7955    7.4538  -27.3776 N   0  0  0  0  0  0  0  0  0  0  0  0
  -13.5549   13.3184  -25.4385 O   0  0  0  0  0  0  0  0  0  0  0  0
  -13.5284   15.5108  -24.0078 O   0  0  0  0  0  0  0  0  0  0  0  0
  -12.5829   14.0604  -21.0063 H   0  0  0  0  0  0  0  0  0  0  0  0
  -13.7642   14.6893  -22.1912 H   0  0  0  0  0  0  0  0  0  0  0  0
  -10.9631   14.2770  -22.5804 H   0  0  0  0  0  0  0  0  0  0  0  0
  -11.4700   15.6124  -24.3384 H   0  0  0  0  0  0  0  0  0  0  0  0
  -12.0123   14.4289  -26.3038 H   0  0  0  0  0  0  0  0  0  0  0  0
  -10.3285   13.5146  -24.8082 H   0  0  0  0  0  0  0  0  0  0  0  0
  -11.4837   12.5887  -27.7387 H   0  0  0  0  0  0  0  0  0  0  0  0
  -10.5074    8.2043  -22.9990 H   0  0  0  0  0  0  0  0  0  0  0  0
  -10.6722    7.8071  -28.3716 H   0  0  0  0  0  0  0  0  0  0  0  0
  -10.9042    6.4242  -27.2896 H   0  0  0  0  0  0  0  0  0  0  0  0
  -14.1973   13.7450  -26.0388 H   0  0  0  0  0  0  0  0  0  0  0  0
  -14.1895   15.2995  -24.7117 H   0  0  0  0  0  0  0  0  0  0  0  0
  1  2  1  0
  2  3  1  0
  3  4  1  0
  4  5  1  0
  5  6  1  0
  5  7  1  0
  7  8  1  0
  8  9  2  0
  9 10  1  0
 10 11  2  0
 11 12  1  0
 12 13  2  0
 13 14  1  0
 14 15  2  0
 15 16  1  0
  4 17  1  0
  3 18  1  0
  6  2  1  0
 11  7  1  0
 15 10  1  0
  1 19  1  0
  1 20  1  0
  2 21  1  0
  3 22  1  0
  4 23  1  0
  5 24  1  0
  8 25  1  0
 13 26  1  0
 16 27  1  0
 16 28  1  0
 17 29  1  0
 18 30  1  0
M  RAD  1   1   2
M  END
$$$$

     RDKit          3D

 30 32  0  0  0  0  0  0  0  0999 V2000
  -14.5283   14.7647  -23.2646 C   0  0  0  0  0  3  0  0  0  0  0  0
  -13.5314   14.0728  -24.1672 C   0  0  0  0  0  0  0  0  0  0  0  0
  -12.1625   14.6939  -24.0841 C   0  0  0  0  0  0  0  0  0  0  0  0
  -11.2926   13.4980  -24.4545 C   0  0  0  0  0  0  0  0  0  0  0  0
  -12.1146   12.3544  -23.9577 C   0  0  0  0  0  0  0  0  0  0  0  0
  -13.3953   12.7764  -23.7479 O   0  0  0  0  0  0  0  0  0  0  0  0
  -12.0696   11.3007  -24.9708 N   0  0  0  0  0  0  0  0  0  0  0  0
  -13.0084   11.0514  -25.9049 C   0  0  0  0  0  0  0  0  0  0  0  0
  -12.6153    9.9958  -26.6654 N   0  0  0  0  0  0  0  0  0  0  0  0
  -11.4135    9.5554  -26.2236 C   0  0  0  0  0  0  0  0  0  0  0  0
  -11.0981   10.3905  -25.1639 C   0  0  0  0  0  0  0  0  0  0  0  0
   -9.9281   10.1459  -24.5512 N   0  0  0  0  0  0  0  0  0  0  0  0
   -9.0963    9.1595  -24.9222 C   0  0  0  0  0  0  0  0  0  0  0  0
   -9.4070    8.3545  -25.9485 N   0  0  0  0  0  0  0  0  0  0  0  0
  -10.5611    8.5408  -26.6076 C   0  0  0  0  0  0  0  0  0  0  0  0
  -10.9090    7.6980  -27.6986 N   0  0  0  0  0  0  0  0  0  0  0  0
  -10.0326   13.5749  -23.8799 O   0  0  0  0  0  0  0  0  0  0  0  0
  -11.9634   15.6803  -25.0434 O   0  0  0  0  0  0  0  0  0  0  0  0
  -14.0599   14.9983  -22.2866 H   0  0  0  0  0  0  0  0  0  0  0  0
  -14.9500   15.6751  -23.7463 H   0  0  0  0  0  0  0  0  0  0  0  0
  -13.8917   14.1597  -25.2224 H   0  0  0  0  0  0  0  0  0  0  0  0
  -11.8690   15.0028  -23.0775 H   0  0  0  0  0  0  0  0  0  0  0  0
  -11.2457   13.4884  -25.5769 H   0  0  0  0  0  0  0  0  0  0  0  0
  -11.6975   11.9001  -23.0330 H   0  0  0  0  0  0  0  0  0  0  0  0
  -13.9269   11.6151  -26.0170 H   0  0  0  0  0  0  0  0  0  0  0  0
   -8.1777    9.0324  -24.3765 H   0  0  0  0  0  0  0  0  0  0  0  0
  -11.6146    6.9528  -27.5197 H   0  0  0  0  0  0  0  0  0  0  0  0
  -10.4805    7.8238  -28.6182 H   0  0  0  0  0  0  0  0  0  0  0  0
   -9.3845   13.2546  -24.5600 H   0  0  0  0  0  0  0  0  0  0  0  0
  -12.2181   15.2577  -25.9226 H   0  0  0  0  0  0  0  0  0  0  0  0
  1  2  1  0
  2  3  1  0
  3  4  1  0
  4  5  1  0
  5  6  1  0
  5  7  1  0
  7  8  1  0
  8  9  2  0
  9 10  1  0
 10 11  2  0
 11 12  1  0
 12 13  2  0
 13 14  1  0
 14 15  2  0
 15 16  1  0
  4 17  1  0
  3 18  1  0
  6  2  1  0
 11  7  1  0
 15 10  1  0
  1 19  1  0
  1 20  1  0
  2 21  1  0
  3 22  1  0
  4 23  1  0
  5 24  1  0
  8 25  1  0
 13 26  1  0
 16 27  1  0
 16 28  1  0
 17 29  1  0
 18 30  1  0
M  RAD  1   1   2
M  END
$$$$

     RDKit          3D

 30 32  0  0  0  0  0  0  0  0999 V2000
  -14.3588   14.1317  -22.6300 C   0  0  0  0  0  3  0  0  0  0  0  0
  -13.5828   13.7487  -23.8492 C   0  0  0  0  0  0  0  0  0  0  0  0
  -12.5854   14.8399  -24.2637 C   0  0  0  0  0  0  0  0  0  0  0  0
  -11.8151   14.0316  -25.2913 C   0  0  0  0  0  0  0  0  0  0  0  0
  -11.7297   12.7134  -24.5549 C   0  0  0  0  0  0  0  0  0  0  0  0
  -12.7445   12.6857  -23.6276 O   0  0  0  0  0  0  0  0  0  0  0  0
  -11.7044   11.5836  -25.4286 N   0  0  0  0  0  0  0  0  0  0  0  0
  -12.3317   11.4569  -26.6095 C   0  0  0  0  0  0  0  0  0  0  0  0
  -12.0802   10.2540  -27.1539 N   0  0  0  0  0  0  0  0  0  0  0  0
  -11.2666    9.5905  -26.2943 C   0  0  0  0  0  0  0  0  0  0  0  0
  -11.0350   10.4368  -25.2093 C   0  0  0  0  0  0  0  0  0  0  0  0
  -10.2429    9.9745  -24.2235 N   0  0  0  0  0  0  0  0  0  0  0  0
   -9.6864    8.7417  -24.2681 C   0  0  0  0  0  0  0  0  0  0  0  0
   -9.9305    7.9490  -25.3311 N   0  0  0  0  0  0  0  0  0  0  0  0
  -10.7097    8.3295  -26.3611 C   0  0  0  0  0  0  0  0  0  0  0  0
  -10.9203    7.4494  -27.4376 N   0  0  0  0  0  0  0  0  0  0  0  0
  -10.5776   14.5705  -25.5783 O   0  0  0  0  0  0  0  0  0  0  0  0
  -11.8254   15.1205  -23.1440 O   0  0  0  0  0  0  0  0  0  0  0  0
  -14.2554   13.3059  -21.8750 H   0  0  0  0  0  0  0  0  0  0  0  0
  -15.4302   14.2043  -22.9108 H   0  0  0  0  0  0  0  0  0  0  0  0
  -14.2430   13.5561  -24.7436 H   0  0  0  0  0  0  0  0  0  0  0  0
  -13.0881   15.7136  -24.6936 H   0  0  0  0  0  0  0  0  0  0  0  0
  -12.4695   13.9583  -26.1827 H   0  0  0  0  0  0  0  0  0  0  0  0
  -10.7491   12.7406  -23.9994 H   0  0  0  0  0  0  0  0  0  0  0  0
  -12.9588   12.1963  -27.0868 H   0  0  0  0  0  0  0  0  0  0  0  0
   -9.0696    8.4580  -23.4385 H   0  0  0  0  0  0  0  0  0  0  0  0
  -10.8456    6.4273  -27.3562 H   0  0  0  0  0  0  0  0  0  0  0  0
  -11.1673    7.8338  -28.3808 H   0  0  0  0  0  0  0  0  0  0  0  0
  -10.6274   15.1649  -26.3716 H   0  0  0  0  0  0  0  0  0  0  0  0
  -10.9591   14.6078  -23.1374 H   0  0  0  0  0  0  0  0  0  0  0  0
  1  2  1  0
  2  3  1  0
  3  4  1  0
  4  5  1  0
  5  6  1  0
  5  7  1  0
  7  8  1  0
  8  9  2  0
  9 10  1  0
 10 11  2  0
 11 12  1  0
 12 13  2  0
 13 14  1  0
 14 15  2  0
 15 16  1  0
  4 17  1  0
  3 18  1  0
  6  2  1  0
 11  7  1  0
 15 10  1  0
  1 19  1  0
  1 20  1  0
  2 21  1  0
  3 22  1  0
  4 23  1  0
  5 24  1  0
  8 25  1  0
 13 26  1  0
 16 27  1  0
 16 28  1  0
 17 29  1  0
 18 30  1  0
M  RAD  1   1   2
M  END
$$$$

     RDKit          3D

 30 32  0  0  0  0  0  0  0  0999 V2000
  -14.1729   13.9902  -23.0561 C   0  0  0  0  0  3  0  0  0  0  0  0
  -12.6904   13.8327  -22.9363 C   0  0  0  0  0  0  0  0  0  0  0  0
  -11.9828   14.6639  -24.0128 C   0  0  0  0  0  0  0  0  0  0  0  0
  -12.3849   13.8723  -25.2593 C   0  0  0  0  0  0  0  0  0  0  0  0
  -12.8514   12.5591  -24.6661 C   0  0  0  0  0  0  0  0  0  0  0  0
  -12.3589   12.5330  -23.3850 O   0  0  0  0  0  0  0  0  0  0  0  0
  -12.3510   11.4791  -25.4912 N   0  0  0  0  0  0  0  0  0  0  0  0
  -12.8039   11.2630  -26.7450 C   0  0  0  0  0  0  0  0  0  0  0  0
  -12.1344   10.1831  -27.2373 N   0  0  0  0  0  0  0  0  0  0  0  0
  -11.2780    9.7309  -26.3093 C   0  0  0  0  0  0  0  0  0  0  0  0
  -11.4324   10.5614  -25.2212 C   0  0  0  0  0  0  0  0  0  0  0  0
  -10.6966   10.3561  -24.1166 N   0  0  0  0  0  0  0  0  0  0  0  0
   -9.8162    9.3266  -24.1092 C   0  0  0  0  0  0  0  0  0  0  0  0
   -9.6575    8.5058  -25.1726 N   0  0  0  0  0  0  0  0  0  0  0  0
  -10.3829    8.6812  -26.3066 C   0  0  0  0  0  0  0  0  0  0  0  0
  -10.2435    7.8397  -27.4428 N   0  0  0  0  0  0  0  0  0  0  0  0
  -11.2552   13.6427  -26.0316 O   0  0  0  0  0  0  0  0  0  0  0  0
  -10.6340   14.5871  -23.7571 O   0  0  0  0  0  0  0  0  0  0  0  0
  -14.4809   14.6927  -23.8665 H   0  0  0  0  0  0  0  0  0  0  0  0
  -14.7053   14.1295  -22.1179 H   0  0  0  0  0  0  0  0  0  0  0  0
  -12.2710   14.0652  -21.9650 H   0  0  0  0  0  0  0  0  0  0  0  0
  -12.3848   15.6837  -24.0313 H   0  0  0  0  0  0  0  0  0  0  0  0
  -13.1803   14.3837  -25.8180 H   0  0  0  0  0  0  0  0  0  0  0  0
  -13.9449   12.4611  -24.6327 H   0  0  0  0  0  0  0  0  0  0  0  0
  -13.5558   11.8237  -27.2855 H   0  0  0  0  0  0  0  0  0  0  0  0
   -9.1902    9.1059  -23.2467 H   0  0  0  0  0  0  0  0  0  0  0  0
   -9.3439    7.5099  -27.8009 H   0  0  0  0  0  0  0  0  0  0  0  0
  -11.1159    7.5506  -27.9284 H   0  0  0  0  0  0  0  0  0  0  0  0
  -10.6403   13.0592  -25.5205 H   0  0  0  0  0  0  0  0  0  0  0  0
  -10.0647   15.0012  -24.4304 H   0  0  0  0  0  0  0  0  0  0  0  0
  1  2  1  0
  2  3  1  0
  3  4  1  0
  4  5  1  0
  5  6  1  0
  5  7  1  0
  7  8  1  0
  8  9  2  0
  9 10  1  0
 10 11  2  0
 11 12  1  0
 12 13  2  0
 13 14  1  0
 14 15  2  0
 15 16  1  0
  4 17  1  0
  3 18  1  0
  6  2  1  0
 11  7  1  0
 15 10  1  0
  1 19  1  0
  1 20  1  0
  2 21  1  0
  3 22  1  0
  4 23  1  0
  5 24  1  0
  8 25  1  0
 13 26  1  0
 16 27  1  0
 16 28  1  0
 17 29  1  0
 18 30  1  0
M  RAD  1   1   2
M  END
$$$$

     RDKit          3D

 30 32  0  0  0  0  0  0  0  0999 V2000
  -14.3025   15.3340  -24.0217 C   0  0  0  0  0  3  0  0  0  0  0  0
  -13.0916   14.5573  -24.3923 C   0  0  0  0  0  0  0  0  0  0  0  0
  -12.4219   13.9363  -23.1829 C   0  0  0  0  0  0  0  0  0  0  0  0
  -11.5059   12.9298  -23.8496 C   0  0  0  0  0  0  0  0  0  0  0  0
  -12.1381   12.8153  -25.2321 C   0  0  0  0  0  0  0  0  0  0  0  0
  -13.3960   13.3868  -25.1268 O   0  0  0  0  0  0  0  0  0  0  0  0
  -12.1848   11.4312  -25.6303 N   0  0  0  0  0  0  0  0  0  0  0  0
  -13.2393   10.7101  -26.0530 C   0  0  0  0  0  0  0  0  0  0  0  0
  -12.8029    9.4630  -26.3118 N   0  0  0  0  0  0  0  0  0  0  0  0
  -11.4768    9.3665  -26.0618 C   0  0  0  0  0  0  0  0  0  0  0  0
  -11.1011   10.6335  -25.6277 C   0  0  0  0  0  0  0  0  0  0  0  0
   -9.7995   10.7949  -25.3105 N   0  0  0  0  0  0  0  0  0  0  0  0
   -8.8919    9.8055  -25.3985 C   0  0  0  0  0  0  0  0  0  0  0  0
   -9.2854    8.5793  -25.8249 N   0  0  0  0  0  0  0  0  0  0  0  0
  -10.5600    8.3530  -26.1547 C   0  0  0  0  0  0  0  0  0  0  0  0
  -10.9641    7.0763  -26.5975 N   0  0  0  0  0  0  0  0  0  0  0  0
  -10.2586   13.5157  -23.9726 O   0  0  0  0  0  0  0  0  0  0  0  0
  -11.7069   14.9196  -22.5073 O   0  0  0  0  0  0  0  0  0  0  0  0
  -13.9965   16.4153  -23.9399 H   0  0  0  0  0  0  0  0  0  0  0  0
  -15.1055   15.3149  -24.7833 H   0  0  0  0  0  0  0  0  0  0  0  0
  -12.3711   15.1144  -25.0258 H   0  0  0  0  0  0  0  0  0  0  0  0
  -13.2002   13.4642  -22.5667 H   0  0  0  0  0  0  0  0  0  0  0  0
  -11.4897   11.9587  -23.3253 H   0  0  0  0  0  0  0  0  0  0  0  0
  -11.5653   13.4293  -25.9709 H   0  0  0  0  0  0  0  0  0  0  0  0
  -14.2536   11.0932  -26.1574 H   0  0  0  0  0  0  0  0  0  0  0  0
   -7.8662   10.0147  -25.1255 H   0  0  0  0  0  0  0  0  0  0  0  0
  -10.9104    6.8090  -27.6015 H   0  0  0  0  0  0  0  0  0  0  0  0
  -11.3195    6.4074  -25.8809 H   0  0  0  0  0  0  0  0  0  0  0  0
  -10.2687   14.4922  -23.8002 H   0  0  0  0  0  0  0  0  0  0  0  0
  -12.2844   15.2357  -21.7677 H   0  0  0  0  0  0  0  0  0  0  0  0
  1  2  1  0
  2  3  1  0
  3  4  1  0
  4  5  1  0
  5  6  1  0
  5  7  1  0
  7  8  1  0
  8  9  2  0
  9 10  1  0
 10 11  2  0
 11 12  1  0
 12 13  2  0
 13 14  1  0
 14 15  2  0
 15 16  1  0
  4 17  1  0
  3 18  1  0
  6  2  1  0
 11  7  1  0
 15 10  1  0
  1 19  1  0
  1 20  1  0
  2 21  1  0
  3 22  1  0
  4 23  1  0
  5 24  1  0
  8 25  1  0
 13 26  1  0
 16 27  1  0
 16 28  1  0
 17 29  1  0
 18 30  1  0
M  RAD  1   1   2
M  END
$$$$

     RDKit          3D

 30 32  0  0  0  0  0  0  0  0999 V2000
  -14.5179   15.0781  -23.7031 C   0  0  0  0  0  3  0  0  0  0  0  0
  -13.2931   14.4308  -24.2583 C   0  0  0  0  0  0  0  0  0  0  0  0
  -12.2502   14.1135  -23.2341 C   0  0  0  0  0  0  0  0  0  0  0  0
  -11.4389   13.0277  -23.9102 C   0  0  0  0  0  0  0  0  0  0  0  0
  -12.2525   12.7917  -25.1737 C   0  0  0  0  0  0  0  0  0  0  0  0
  -13.5651   13.1517  -24.7886 O   0  0  0  0  0  0  0  0  0  0  0  0
  -12.1842   11.4300  -25.6237 N   0  0  0  0  0  0  0  0  0  0  0  0
  -13.2185   10.7623  -26.1576 C   0  0  0  0  0  0  0  0  0  0  0  0
  -12.7673    9.5277  -26.4514 N   0  0  0  0  0  0  0  0  0  0  0  0
  -11.4733    9.4047  -26.1144 C   0  0  0  0  0  0  0  0  0  0  0  0
  -11.1023   10.6341  -25.5812 C   0  0  0  0  0  0  0  0  0  0  0  0
   -9.8314   10.7702  -25.1615 N   0  0  0  0  0  0  0  0  0  0  0  0
   -8.9268    9.7701  -25.2414 C   0  0  0  0  0  0  0  0  0  0  0  0
   -9.2912    8.5993  -25.7525 N   0  0  0  0  0  0  0  0  0  0  0  0
  -10.5556    8.3776  -26.1999 C   0  0  0  0  0  0  0  0  0  0  0  0
  -10.9110    7.1132  -26.7406 N   0  0  0  0  0  0  0  0  0  0  0  0
  -10.1407   13.4297  -24.1903 O   0  0  0  0  0  0  0  0  0  0  0  0
  -11.4070   15.1956  -22.9734 O   0  0  0  0  0  0  0  0  0  0  0  0
  -14.5188   16.1916  -23.8343 H   0  0  0  0  0  0  0  0  0  0  0  0
  -15.4186   14.7106  -24.2601 H   0  0  0  0  0  0  0  0  0  0  0  0
  -12.8070   15.0014  -25.0758 H   0  0  0  0  0  0  0  0  0  0  0  0
  -12.6577   13.7179  -22.2852 H   0  0  0  0  0  0  0  0  0  0  0  0
  -11.4547   12.0956  -23.3110 H   0  0  0  0  0  0  0  0  0  0  0  0
  -11.9648   13.5326  -25.9505 H   0  0  0  0  0  0  0  0  0  0  0  0
  -14.2330   11.0866  -26.3432 H   0  0  0  0  0  0  0  0  0  0  0  0
   -7.8991    9.9082  -24.8924 H   0  0  0  0  0  0  0  0  0  0  0  0
  -10.8286    6.2854  -26.1194 H   0  0  0  0  0  0  0  0  0  0  0  0
  -11.2470    6.9842  -27.7231 H   0  0  0  0  0  0  0  0  0  0  0  0
  -10.1145   14.3829  -24.4411 H   0  0  0  0  0  0  0  0  0  0  0  0
  -11.3952   15.8123  -23.7478 H   0  0  0  0  0  0  0  0  0  0  0  0
  1  2  1  0
  2  3  1  0
  3  4  1  0
  4  5  1  0
  5  6  1  0
  5  7  1  0
  7  8  1  0
  8  9  2  0
  9 10  1  0
 10 11  2  0
 11 12  1  0
 12 13  2  0
 13 14  1  0
 14 15  2  0
 15 16  1  0
  4 17  1  0
  3 18  1  0
  6  2  1  0
 11  7  1  0
 15 10  1  0
  1 19  1  0
  1 20  1  0
  2 21  1  0
  3 22  1  0
  4 23  1  0
  5 24  1  0
  8 25  1  0
 13 26  1  0
 16 27  1  0
 16 28  1  0
 17 29  1  0
 18 30  1  0
M  RAD  1   1   2
M  END
$$$$

     RDKit          3D

 30 32  0  0  0  0  0  0  0  0999 V2000
  -14.2242   14.9538  -23.3234 C   0  0  0  0  0  3  0  0  0  0  0  0
  -13.1785   13.8925  -23.4398 C   0  0  0  0  0  0  0  0  0  0  0  0
  -11.7776   14.4855  -23.6135 C   0  0  0  0  0  0  0  0  0  0  0  0
  -11.1152   13.2330  -24.2194 C   0  0  0  0  0  0  0  0  0  0  0  0
  -12.2132   12.8380  -25.1607 C   0  0  0  0  0  0  0  0  0  0  0  0
  -13.4086   13.1184  -24.5497 O   0  0  0  0  0  0  0  0  0  0  0  0
  -12.1288   11.4953  -25.6436 N   0  0  0  0  0  0  0  0  0  0  0  0
  -13.1656   10.8801  -26.2531 C   0  0  0  0  0  0  0  0  0  0  0  0
  -12.7555    9.6289  -26.5835 N   0  0  0  0  0  0  0  0  0  0  0  0
  -11.4809    9.4872  -26.1776 C   0  0  0  0  0  0  0  0  0  0  0  0
  -11.0864   10.6709  -25.5826 C   0  0  0  0  0  0  0  0  0  0  0  0
   -9.8691   10.8501  -25.0747 N   0  0  0  0  0  0  0  0  0  0  0  0
   -8.9704    9.8245  -25.1425 C   0  0  0  0  0  0  0  0  0  0  0  0
   -9.3515    8.6716  -25.7209 N   0  0  0  0  0  0  0  0  0  0  0  0
  -10.5785    8.4723  -26.2400 C   0  0  0  0  0  0  0  0  0  0  0  0
  -10.9423    7.2539  -26.8372 N   0  0  0  0  0  0  0  0  0  0  0  0
  -10.9936   12.3596  -23.1419 O   0  0  0  0  0  0  0  0  0  0  0  0
  -11.8869   15.4924  -24.5519 O   0  0  0  0  0  0  0  0  0  0  0  0
  -15.1880   14.5280  -23.7092 H   0  0  0  0  0  0  0  0  0  0  0  0
  -14.4029   15.1471  -22.2323 H   0  0  0  0  0  0  0  0  0  0  0  0
  -13.1502   13.2269  -22.5268 H   0  0  0  0  0  0  0  0  0  0  0  0
  -11.3212   14.7749  -22.6712 H   0  0  0  0  0  0  0  0  0  0  0  0
  -10.1720   13.4711  -24.7022 H   0  0  0  0  0  0  0  0  0  0  0  0
  -12.1308   13.5141  -26.0511 H   0  0  0  0  0  0  0  0  0  0  0  0
  -14.1592   11.2543  -26.4686 H   0  0  0  0  0  0  0  0  0  0  0  0
   -7.9671    9.9103  -24.7476 H   0  0  0  0  0  0  0  0  0  0  0  0
  -11.1233    7.1532  -27.8555 H   0  0  0  0  0  0  0  0  0  0  0  0
  -11.0364    6.4102  -26.2373 H   0  0  0  0  0  0  0  0  0  0  0  0
  -10.2270   12.7004  -22.5988 H   0  0  0  0  0  0  0  0  0  0  0  0
  -11.3136   16.2620  -24.4086 H   0  0  0  0  0  0  0  0  0  0  0  0
  1  2  1  0
  2  3  1  0
  3  4  1  0
  4  5  1  0
  5  6  1  0
  5  7  1  0
  7  8  1  0
  8  9  2  0
  9 10  1  0
 10 11  2  0
 11 12  1  0
 12 13  2  0
 13 14  1  0
 14 15  2  0
 15 16  1  0
  4 17  1  0
  3 18  1  0
  6  2  1  0
 11  7  1  0
 15 10  1  0
  1 19  1  0
  1 20  1  0
  2 21  1  0
  3 22  1  0
  4 23  1  0
  5 24  1  0
  8 25  1  0
 13 26  1  0
 16 27  1  0
 16 28  1  0
 17 29  1  0
 18 30  1  0
M  RAD  1   1   2
M  END
$$$$

     RDKit          3D

 30 32  0  0  0  0  0  0  0  0999 V2000
  -13.4821   13.2836  -22.1195 C   0  0  0  0  0  3  0  0  0  0  0  0
  -13.3806   13.9511  -23.4942 C   0  0  0  0  0  0  0  0  0  0  0  0
  -11.9900   14.5192  -23.5907 C   0  0  0  0  0  0  0  0  0  0  0  0
  -11.2756   13.3159  -24.2260 C   0  0  0  0  0  0  0  0  0  0  0  0
  -12.3688   12.9012  -25.1917 C   0  0  0  0  0  0  0  0  0  0  0  0
  -13.5111   12.9623  -24.4325 O   0  0  0  0  0  0  0  0  0  0  0  0
  -12.1241   11.6270  -25.8018 N   0  0  0  0  0  0  0  0  0  0  0  0
  -12.7559   11.1874  -26.8993 C   0  0  0  0  0  0  0  0  0  0  0  0
  -12.3231    9.9701  -27.2358 N   0  0  0  0  0  0  0  0  0  0  0  0
  -11.3915    9.6259  -26.3288 C   0  0  0  0  0  0  0  0  0  0  0  0
  -11.2704   10.6605  -25.4374 C   0  0  0  0  0  0  0  0  0  0  0  0
  -10.3944   10.5657  -24.4205 N   0  0  0  0  0  0  0  0  0  0  0  0
   -9.6433    9.4551  -24.2863 C   0  0  0  0  0  0  0  0  0  0  0  0
   -9.7323    8.4205  -25.1381 N   0  0  0  0  0  0  0  0  0  0  0  0
  -10.6115    8.5051  -26.1663 C   0  0  0  0  0  0  0  0  0  0  0  0
  -10.7641    7.4582  -27.1055 N   0  0  0  0  0  0  0  0  0  0  0  0
  -10.1121   13.6743  -24.8491 O   0  0  0  0  0  0  0  0  0  0  0  0
  -11.9960   15.5249  -24.5325 O   0  0  0  0  0  0  0  0  0  0  0  0
  -12.4544   13.0098  -21.7464 H   0  0  0  0  0  0  0  0  0  0  0  0
  -14.0054   12.2867  -22.2073 H   0  0  0  0  0  0  0  0  0  0  0  0
  -14.1710   14.7142  -23.6351 H   0  0  0  0  0  0  0  0  0  0  0  0
  -11.5539   14.7952  -22.6289 H   0  0  0  0  0  0  0  0  0  0  0  0
  -11.1460   12.5804  -23.4012 H   0  0  0  0  0  0  0  0  0  0  0  0
  -12.3773   13.6895  -25.9922 H   0  0  0  0  0  0  0  0  0  0  0  0
  -13.5256   11.6989  -27.4858 H   0  0  0  0  0  0  0  0  0  0  0  0
   -8.9369    9.3735  -23.4701 H   0  0  0  0  0  0  0  0  0  0  0  0
  -10.3700    7.5244  -28.0599 H   0  0  0  0  0  0  0  0  0  0  0  0
  -11.2827    6.6057  -26.8299 H   0  0  0  0  0  0  0  0  0  0  0  0
  -10.2425   14.5671  -25.2689 H   0  0  0  0  0  0  0  0  0  0  0  0
  -12.8973   15.6372  -24.9724 H   0  0  0  0  0  0  0  0  0  0  0  0
  1  2  1  0
  2  3  1  0
  3  4  1  0
  4  5  1  0
  5  6  1  0
  5  7  1  0
  7  8  1  0
  8  9  2  0
  9 10  1  0
 10 11  2  0
 11 12  1  0
 12 13  2  0
 13 14  1  0
 14 15  2  0
 15 16  1  0
  4 17  1  0
  3 18  1  0
  6  2  1  0
 11  7  1  0
 15 10  1  0
  1 19  1  0
  1 20  1  0
  2 21  1  0
  3 22  1  0
  4 23  1  0
  5 24  1  0
  8 25  1  0
 13 26  1  0
 16 27  1  0
 16 28  1  0
 17 29  1  0
 18 30  1  0
M  RAD  1   1   2
M  END
$$$$

     RDKit          3D

 30 32  0  0  0  0  0  0  0  0999 V2000
  -11.3993   15.9022  -25.1870 C   0  0  0  0  0  3  0  0  0  0  0  0
  -11.6967   14.7361  -24.2947 C   0  0  0  0  0  0  0  0  0  0  0  0
  -13.1664   14.3663  -24.3000 C   0  0  0  0  0  0  0  0  0  0  0  0
  -13.0883   12.9618  -23.7127 C   0  0  0  0  0  0  0  0  0  0  0  0
  -11.7516   12.5054  -24.1938 C   0  0  0  0  0  0  0  0  0  0  0  0
  -11.1240   13.5626  -24.8083 O   0  0  0  0  0  0  0  0  0  0  0  0
  -11.8582   11.3469  -25.0813 N   0  0  0  0  0  0  0  0  0  0  0  0
  -12.8998   11.0402  -25.8765 C   0  0  0  0  0  0  0  0  0  0  0  0
  -12.6469    9.8970  -26.5542 N   0  0  0  0  0  0  0  0  0  0  0  0
  -11.4281    9.4538  -26.1973 C   0  0  0  0  0  0  0  0  0  0  0  0
  -10.9519   10.3714  -25.2777 C   0  0  0  0  0  0  0  0  0  0  0  0
   -9.7331   10.1526  -24.7603 N   0  0  0  0  0  0  0  0  0  0  0  0
   -8.9855    9.0907  -25.1064 C   0  0  0  0  0  0  0  0  0  0  0  0
   -9.4726    8.2217  -25.9972 N   0  0  0  0  0  0  0  0  0  0  0  0
  -10.6819    8.3478  -26.5757 C   0  0  0  0  0  0  0  0  0  0  0  0
  -11.1658    7.4007  -27.5206 N   0  0  0  0  0  0  0  0  0  0  0  0
  -13.1572   13.0312  -22.3080 O   0  0  0  0  0  0  0  0  0  0  0  0
  -13.9200   15.2197  -23.5043 O   0  0  0  0  0  0  0  0  0  0  0  0
  -10.8636   16.7124  -24.6515 H   0  0  0  0  0  0  0  0  0  0  0  0
  -12.2811   16.2828  -25.7351 H   0  0  0  0  0  0  0  0  0  0  0  0
  -11.2981   14.8624  -23.2757 H   0  0  0  0  0  0  0  0  0  0  0  0
  -13.5119   14.3260  -25.3406 H   0  0  0  0  0  0  0  0  0  0  0  0
  -13.9343   12.3309  -24.0410 H   0  0  0  0  0  0  0  0  0  0  0  0
  -11.1424   12.2427  -23.2818 H   0  0  0  0  0  0  0  0  0  0  0  0
  -13.8169   11.6164  -25.9715 H   0  0  0  0  0  0  0  0  0  0  0  0
   -7.9889    8.9376  -24.6649 H   0  0  0  0  0  0  0  0  0  0  0  0
  -10.4897    6.9193  -28.1524 H   0  0  0  0  0  0  0  0  0  0  0  0
  -12.1698    7.1419  -27.6355 H   0  0  0  0  0  0  0  0  0  0  0  0
  -13.2321   13.9553  -22.0002 H   0  0  0  0  0  0  0  0  0  0  0  0
  -14.4738   15.7630  -24.1266 H   0  0  0  0  0  0  0  0  0  0  0  0
  1  2  1  0
  2  3  1  0
  3  4  1  0
  4  5  1  0
  5  6  1  0
  5  7  1  0
  7  8  1  0
  8  9  2  0
  9 10  1  0
 10 11  2  0
 11 12  1  0
 12 13  2  0
 13 14  1  0
 14 15  2  0
 15 16  1  0
  4 17  1  0
  3 18  1  0
  6  2  1  0
 11  7  1  0
 15 10  1  0
  1 19  1  0
  1 20  1  0
  2 21  1  0
  3 22  1  0
  4 23  1  0
  5 24  1  0
  8 25  1  0
 13 26  1  0
 16 27  1  0
 16 28  1  0
 17 29  1  0
 18 30  1  0
M  RAD  1   1   2
M  END
$$$$

     RDKit          3D

 30 32  0  0  0  0  0  0  0  0999 V2000
  -13.2831   13.8237  -21.7736 C   0  0  0  0  0  3  0  0  0  0  0  0
  -13.2063   13.7732  -23.2641 C   0  0  0  0  0  0  0  0  0  0  0  0
  -12.0419   14.6071  -23.7151 C   0  0  0  0  0  0  0  0  0  0  0  0
  -11.2602   13.6174  -24.5867 C   0  0  0  0  0  0  0  0  0  0  0  0
  -12.4363   12.7309  -24.9949 C   0  0  0  0  0  0  0  0  0  0  0  0
  -12.9957   12.4785  -23.7585 O   0  0  0  0  0  0  0  0  0  0  0  0
  -12.0552   11.5919  -25.7363 N   0  0  0  0  0  0  0  0  0  0  0  0
  -12.3618   11.3902  -27.0491 C   0  0  0  0  0  0  0  0  0  0  0  0
  -11.8463   10.2141  -27.4290 N   0  0  0  0  0  0  0  0  0  0  0  0
  -11.2130    9.6497  -26.3926 C   0  0  0  0  0  0  0  0  0  0  0  0
  -11.3529   10.5259  -25.3385 C   0  0  0  0  0  0  0  0  0  0  0  0
  -10.7963   10.1787  -24.1731 N   0  0  0  0  0  0  0  0  0  0  0  0
  -10.1176    9.0154  -24.0163 C   0  0  0  0  0  0  0  0  0  0  0  0
   -9.9995    8.1784  -25.0722 N   0  0  0  0  0  0  0  0  0  0  0  0
  -10.5258    8.4449  -26.2795 C   0  0  0  0  0  0  0  0  0  0  0  0
  -10.4141    7.5870  -27.3918 N   0  0  0  0  0  0  0  0  0  0  0  0
  -10.7005   14.2172  -25.6861 O   0  0  0  0  0  0  0  0  0  0  0  0
  -12.5205   15.5838  -24.5986 O   0  0  0  0  0  0  0  0  0  0  0  0
  -14.2238   13.3233  -21.4428 H   0  0  0  0  0  0  0  0  0  0  0  0
  -12.4288   13.2579  -21.3435 H   0  0  0  0  0  0  0  0  0  0  0  0
  -14.1692   14.1111  -23.7300 H   0  0  0  0  0  0  0  0  0  0  0  0
  -11.4392   15.0221  -22.9102 H   0  0  0  0  0  0  0  0  0  0  0  0
  -10.5405   13.0702  -23.9511 H   0  0  0  0  0  0  0  0  0  0  0  0
  -13.1296   13.3847  -25.5486 H   0  0  0  0  0  0  0  0  0  0  0  0
  -12.9353   12.0913  -27.6629 H   0  0  0  0  0  0  0  0  0  0  0  0
   -9.6640    8.7344  -23.0632 H   0  0  0  0  0  0  0  0  0  0  0  0
   -9.9601    7.9143  -28.2586 H   0  0  0  0  0  0  0  0  0  0  0  0
  -10.7883    6.6277  -27.3385 H   0  0  0  0  0  0  0  0  0  0  0  0
   -9.7299   14.3824  -25.5952 H   0  0  0  0  0  0  0  0  0  0  0  0
  -12.0161   15.6025  -25.4507 H   0  0  0  0  0  0  0  0  0  0  0  0
  1  2  1  0
  2  3  1  0
  3  4  1  0
  4  5  1  0
  5  6  1  0
  5  7  1  0
  7  8  1  0
  8  9  2  0
  9 10  1  0
 10 11  2  0
 11 12  1  0
 12 13  2  0
 13 14  1  0
 14 15  2  0
 15 16  1  0
  4 17  1  0
  3 18  1  0
  6  2  1  0
 11  7  1  0
 15 10  1  0
  1 19  1  0
  1 20  1  0
  2 21  1  0
  3 22  1  0
  4 23  1  0
  5 24  1  0
  8 25  1  0
 13 26  1  0
 16 27  1  0
 16 28  1  0
 17 29  1  0
 18 30  1  0
M  RAD  1   1   2
M  END
$$$$

     RDKit          3D

 30 32  0  0  0  0  0  0  0  0999 V2000
  -11.7578   15.8182  -25.2717 C   0  0  0  0  0  3  0  0  0  0  0  0
  -12.5963   14.6361  -24.8869 C   0  0  0  0  0  0  0  0  0  0  0  0
  -12.4768   14.3168  -23.4137 C   0  0  0  0  0  0  0  0  0  0  0  0
  -12.2353   12.8029  -23.4252 C   0  0  0  0  0  0  0  0  0  0  0  0
  -12.7954   12.4737  -24.8127 C   0  0  0  0  0  0  0  0  0  0  0  0
  -12.2093   13.4793  -25.5737 O   0  0  0  0  0  0  0  0  0  0  0  0
  -12.4723   11.1556  -25.2380 N   0  0  0  0  0  0  0  0  0  0  0  0
  -13.4018   10.1695  -25.3805 C   0  0  0  0  0  0  0  0  0  0  0  0
  -12.7782    9.0701  -25.7883 N   0  0  0  0  0  0  0  0  0  0  0  0
  -11.4730    9.3549  -25.9025 C   0  0  0  0  0  0  0  0  0  0  0  0
  -11.2794   10.6749  -25.5542 C   0  0  0  0  0  0  0  0  0  0  0  0
  -10.0420   11.1665  -25.5992 N   0  0  0  0  0  0  0  0  0  0  0  0
   -8.9751   10.4047  -25.9769 C   0  0  0  0  0  0  0  0  0  0  0  0
   -9.1833    9.1194  -26.3131 N   0  0  0  0  0  0  0  0  0  0  0  0
  -10.4211    8.5785  -26.2822 C   0  0  0  0  0  0  0  0  0  0  0  0
  -10.6410    7.2245  -26.6363 N   0  0  0  0  0  0  0  0  0  0  0  0
  -12.9148   12.1598  -22.4204 O   0  0  0  0  0  0  0  0  0  0  0  0
  -11.4741   15.0027  -22.7806 O   0  0  0  0  0  0  0  0  0  0  0  0
  -10.7714   15.5353  -25.6818 H   0  0  0  0  0  0  0  0  0  0  0  0
  -11.6130   16.5225  -24.4211 H   0  0  0  0  0  0  0  0  0  0  0  0
  -13.6791   14.7959  -25.1623 H   0  0  0  0  0  0  0  0  0  0  0  0
  -13.4776   14.4477  -22.9409 H   0  0  0  0  0  0  0  0  0  0  0  0
  -11.1557   12.5751  -23.4710 H   0  0  0  0  0  0  0  0  0  0  0  0
  -13.8695   12.6851  -24.7636 H   0  0  0  0  0  0  0  0  0  0  0  0
  -14.4649   10.2409  -25.2007 H   0  0  0  0  0  0  0  0  0  0  0  0
   -7.9968   10.8398  -25.9991 H   0  0  0  0  0  0  0  0  0  0  0  0
  -11.1387    6.9205  -27.4943 H   0  0  0  0  0  0  0  0  0  0  0  0
  -10.2804    6.4925  -25.9953 H   0  0  0  0  0  0  0  0  0  0  0  0
  -12.4099   11.3869  -22.0406 H   0  0  0  0  0  0  0  0  0  0  0  0
  -11.7644   15.2620  -21.8489 H   0  0  0  0  0  0  0  0  0  0  0  0
  1  2  1  0
  2  3  1  0
  3  4  1  0
  4  5  1  0
  5  6  1  0
  5  7  1  0
  7  8  1  0
  8  9  2  0
  9 10  1  0
 10 11  2  0
 11 12  1  0
 12 13  2  0
 13 14  1  0
 14 15  2  0
 15 16  1  0
  4 17  1  0
  3 18  1  0
  6  2  1  0
 11  7  1  0
 15 10  1  0
  1 19  1  0
  1 20  1  0
  2 21  1  0
  3 22  1  0
  4 23  1  0
  5 24  1  0
  8 25  1  0
 13 26  1  0
 16 27  1  0
 16 28  1  0
 17 29  1  0
 18 30  1  0
M  RAD  1   1   2
M  END
$$$$

     RDKit          3D

 30 32  0  0  0  0  0  0  0  0999 V2000
  -14.3098   14.6569  -22.9413 C   0  0  0  0  0  3  0  0  0  0  0  0
  -13.4996   13.9388  -24.0234 C   0  0  0  0  0  0  0  0  0  0  0  0
  -12.2755   14.7094  -24.3937 C   0  0  0  0  0  0  0  0  0  0  0  0
  -11.1991   13.6556  -24.4230 C   0  0  0  0  0  0  0  0  0  0  0  0
  -11.8875   12.3855  -23.9973 C   0  0  0  0  0  0  0  0  0  0  0  0
  -13.1220   12.7256  -23.5017 O   0  0  0  0  0  0  0  0  0  0  0  0
  -11.9232   11.3878  -25.0369 N   0  0  0  0  0  0  0  0  0  0  0  0
  -12.7901   11.2583  -26.0575 C   0  0  0  0  0  0  0  0  0  0  0  0
  -12.4848   10.1916  -26.8160 N   0  0  0  0  0  0  0  0  0  0  0  0
  -11.4120    9.6401  -26.2683 C   0  0  0  0  0  0  0  0  0  0  0  0
  -11.0320   10.3605  -25.1538 C   0  0  0  0  0  0  0  0  0  0  0  0
   -9.9614    9.9803  -24.4362 N   0  0  0  0  0  0  0  0  0  0  0  0
   -9.2311    8.9017  -24.7701 C   0  0  0  0  0  0  0  0  0  0  0  0
   -9.6098    8.2077  -25.8567 N   0  0  0  0  0  0  0  0  0  0  0  0
  -10.6658    8.5249  -26.6227 C   0  0  0  0  0  0  0  0  0  0  0  0
  -11.0543    7.7826  -27.7679 N   0  0  0  0  0  0  0  0  0  0  0  0
  -10.2026   14.0469  -23.5099 O   0  0  0  0  0  0  0  0  0  0  0  0
  -12.4665   15.2538  -25.6797 O   0  0  0  0  0  0  0  0  0  0  0  0
  -15.1607   15.2195  -23.3797 H   0  0  0  0  0  0  0  0  0  0  0  0
  -14.7175   13.9494  -22.1972 H   0  0  0  0  0  0  0  0  0  0  0  0
  -14.2009   13.8500  -24.8963 H   0  0  0  0  0  0  0  0  0  0  0  0
  -12.0529   15.5122  -23.6602 H   0  0  0  0  0  0  0  0  0  0  0  0
  -10.7523   13.6104  -25.4216 H   0  0  0  0  0  0  0  0  0  0  0  0
  -11.2918   11.9838  -23.1252 H   0  0  0  0  0  0  0  0  0  0  0  0
  -13.6309   11.9414  -26.2347 H   0  0  0  0  0  0  0  0  0  0  0  0
   -8.3563    8.6030  -24.1717 H   0  0  0  0  0  0  0  0  0  0  0  0
  -11.7498    7.0267  -27.7054 H   0  0  0  0  0  0  0  0  0  0  0  0
  -10.6139    8.0250  -28.6790 H   0  0  0  0  0  0  0  0  0  0  0  0
  -10.3144   14.9990  -23.2325 H   0  0  0  0  0  0  0  0  0  0  0  0
  -11.7828   14.8527  -26.2791 H   0  0  0  0  0  0  0  0  0  0  0  0
  1  2  1  0
  2  3  1  0
  3  4  1  0
  4  5  1  0
  5  6  1  0
  5  7  1  0
  7  8  1  0
  8  9  2  0
  9 10  1  0
 10 11  2  0
 11 12  1  0
 12 13  2  0
 13 14  1  0
 14 15  2  0
 15 16  1  0
  4 17  1  0
  3 18  1  0
  6  2  1  0
 11  7  1  0
 15 10  1  0
  1 19  1  0
  1 20  1  0
  2 21  1  0
  3 22  1  0
  4 23  1  0
  5 24  1  0
  8 25  1  0
 13 26  1  0
 16 27  1  0
 16 28  1  0
 17 29  1  0
 18 30  1  0
M  RAD  1   1   2
M  END
$$$$

     RDKit          3D

 30 32  0  0  0  0  0  0  0  0999 V2000
  -14.6164   14.3239  -23.7007 C   0  0  0  0  0  3  0  0  0  0  0  0
  -13.3755   13.5826  -24.0438 C   0  0  0  0  0  0  0  0  0  0  0  0
  -12.1466   14.1445  -23.3170 C   0  0  0  0  0  0  0  0  0  0  0  0
  -11.0469   13.3993  -24.0864 C   0  0  0  0  0  0  0  0  0  0  0  0
  -11.7119   13.1363  -25.3980 C   0  0  0  0  0  0  0  0  0  0  0  0
  -12.9667   13.7439  -25.3666 O   0  0  0  0  0  0  0  0  0  0  0  0
  -11.8977   11.7336  -25.6857 N   0  0  0  0  0  0  0  0  0  0  0  0
  -13.0287   11.1054  -26.0526 C   0  0  0  0  0  0  0  0  0  0  0  0
  -12.8045    9.8095  -26.2285 N   0  0  0  0  0  0  0  0  0  0  0  0
  -11.5221    9.5714  -25.9788 C   0  0  0  0  0  0  0  0  0  0  0  0
  -10.9483   10.7908  -25.6350 C   0  0  0  0  0  0  0  0  0  0  0  0
   -9.6463   10.7795  -25.3412 N   0  0  0  0  0  0  0  0  0  0  0  0
   -8.9142    9.6578  -25.3711 C   0  0  0  0  0  0  0  0  0  0  0  0
   -9.4584    8.4646  -25.7036 N   0  0  0  0  0  0  0  0  0  0  0  0
  -10.7604    8.4141  -26.0083 C   0  0  0  0  0  0  0  0  0  0  0  0
  -11.4253    7.2132  -26.3696 N   0  0  0  0  0  0  0  0  0  0  0  0
  -10.7490   12.2325  -23.3796 O   0  0  0  0  0  0  0  0  0  0  0  0
  -12.1081   15.5052  -23.5894 O   0  0  0  0  0  0  0  0  0  0  0  0
  -14.9099   15.1034  -24.4314 H   0  0  0  0  0  0  0  0  0  0  0  0
  -15.4676   13.6405  -23.4422 H   0  0  0  0  0  0  0  0  0  0  0  0
  -13.4358   12.5065  -23.7506 H   0  0  0  0  0  0  0  0  0  0  0  0
  -12.1392   13.8942  -22.2571 H   0  0  0  0  0  0  0  0  0  0  0  0
  -10.1244   13.9887  -24.1467 H   0  0  0  0  0  0  0  0  0  0  0  0
  -11.0639   13.6133  -26.1904 H   0  0  0  0  0  0  0  0  0  0  0  0
  -13.9741   11.6157  -26.1781 H   0  0  0  0  0  0  0  0  0  0  0  0
   -7.8569    9.6455  -25.1330 H   0  0  0  0  0  0  0  0  0  0  0  0
  -11.7255    7.0925  -27.3495 H   0  0  0  0  0  0  0  0  0  0  0  0
  -11.6057    6.4749  -25.6685 H   0  0  0  0  0  0  0  0  0  0  0  0
  -11.5945   11.7665  -23.1085 H   0  0  0  0  0  0  0  0  0  0  0  0
  -11.1896   15.8686  -23.5973 H   0  0  0  0  0  0  0  0  0  0  0  0
  1  2  1  0
  2  3  1  0
  3  4  1  0
  4  5  1  0
  5  6  1  0
  5  7  1  0
  7  8  1  0
  8  9  2  0
  9 10  1  0
 10 11  2  0
 11 12  1  0
 12 13  2  0
 13 14  1  0
 14 15  2  0
 15 16  1  0
  4 17  1  0
  3 18  1  0
  6  2  1  0
 11  7  1  0
 15 10  1  0
  1 19  1  0
  1 20  1  0
  2 21  1  0
  3 22  1  0
  4 23  1  0
  5 24  1  0
  8 25  1  0
 13 26  1  0
 16 27  1  0
 16 28  1  0
 17 29  1  0
 18 30  1  0
M  RAD  1   1   2
M  END
$$$$

     RDKit          3D

 30 32  0  0  0  0  0  0  0  0999 V2000
  -12.7882   14.0340  -21.7172 C   0  0  0  0  0  3  0  0  0  0  0  0
  -12.1947   13.9992  -23.0712 C   0  0  0  0  0  0  0  0  0  0  0  0
  -13.1727   14.2769  -24.1877 C   0  0  0  0  0  0  0  0  0  0  0  0
  -12.3718   13.8153  -25.3888 C   0  0  0  0  0  0  0  0  0  0  0  0
  -11.2694   12.9868  -24.7154 C   0  0  0  0  0  0  0  0  0  0  0  0
  -11.7387   12.7137  -23.4465 O   0  0  0  0  0  0  0  0  0  0  0  0
  -11.0687   11.8245  -25.5255 N   0  0  0  0  0  0  0  0  0  0  0  0
  -10.8465   11.9020  -26.8579 C   0  0  0  0  0  0  0  0  0  0  0  0
  -10.6970   10.6717  -27.3452 N   0  0  0  0  0  0  0  0  0  0  0  0
  -10.8212    9.8111  -26.3390 C   0  0  0  0  0  0  0  0  0  0  0  0
  -11.0557   10.5203  -25.1853 C   0  0  0  0  0  0  0  0  0  0  0  0
  -11.2191    9.9020  -24.0263 N   0  0  0  0  0  0  0  0  0  0  0  0
  -11.1467    8.5444  -24.0187 C   0  0  0  0  0  0  0  0  0  0  0  0
  -10.9180    7.8303  -25.1363 N   0  0  0  0  0  0  0  0  0  0  0  0
  -10.7499    8.4248  -26.3158 C   0  0  0  0  0  0  0  0  0  0  0  0
  -10.5081    7.7190  -27.5139 N   0  0  0  0  0  0  0  0  0  0  0  0
  -13.1233   12.9916  -26.2237 O   0  0  0  0  0  0  0  0  0  0  0  0
  -13.4373   15.6405  -24.2415 O   0  0  0  0  0  0  0  0  0  0  0  0
  -12.3776   13.2745  -21.0159 H   0  0  0  0  0  0  0  0  0  0  0  0
  -12.5117   15.0250  -21.2488 H   0  0  0  0  0  0  0  0  0  0  0  0
  -11.3303   14.6788  -23.2255 H   0  0  0  0  0  0  0  0  0  0  0  0
  -14.0786   13.6727  -24.0170 H   0  0  0  0  0  0  0  0  0  0  0  0
  -11.9363   14.6725  -25.9366 H   0  0  0  0  0  0  0  0  0  0  0  0
  -10.3417   13.6089  -24.6639 H   0  0  0  0  0  0  0  0  0  0  0  0
  -10.7904   12.7960  -27.4737 H   0  0  0  0  0  0  0  0  0  0  0  0
  -11.2707    7.9682  -23.1045 H   0  0  0  0  0  0  0  0  0  0  0  0
  -10.4456    6.6763  -27.4999 H   0  0  0  0  0  0  0  0  0  0  0  0
  -10.3910    8.2121  -28.4076 H   0  0  0  0  0  0  0  0  0  0  0  0
  -13.3663   13.5279  -27.0173 H   0  0  0  0  0  0  0  0  0  0  0  0
  -14.2540   15.8251  -24.7360 H   0  0  0  0  0  0  0  0  0  0  0  0
  1  2  1  0
  2  3  1  0
  3  4  1  0
  4  5  1  0
  5  6  1  0
  5  7  1  0
  7  8  1  0
  8  9  2  0
  9 10  1  0
 10 11  2  0
 11 12  1  0
 12 13  2  0
 13 14  1  0
 14 15  2  0
 15 16  1  0
  4 17  1  0
  3 18  1  0
  6  2  1  0
 11  7  1  0
 15 10  1  0
  1 19  1  0
  1 20  1  0
  2 21  1  0
  3 22  1  0
  4 23  1  0
  5 24  1  0
  8 25  1  0
 13 26  1  0
 16 27  1  0
 16 28  1  0
 17 29  1  0
 18 30  1  0
M  RAD  1   1   2
M  END
$$$$

     RDKit          3D

 30 32  0  0  0  0  0  0  0  0999 V2000
  -14.4718   14.8658  -24.0755 C   0  0  0  0  0  3  0  0  0  0  0  0
  -13.0615   14.4733  -24.3475 C   0  0  0  0  0  0  0  0  0  0  0  0
  -12.5127   13.4924  -23.3064 C   0  0  0  0  0  0  0  0  0  0  0  0
  -11.2187   13.1322  -24.0092 C   0  0  0  0  0  0  0  0  0  0  0  0
  -11.7090   13.0682  -25.4407 C   0  0  0  0  0  0  0  0  0  0  0  0
  -12.8999   13.7371  -25.5110 O   0  0  0  0  0  0  0  0  0  0  0  0
  -11.9395   11.6591  -25.7440 N   0  0  0  0  0  0  0  0  0  0  0  0
  -13.0585   11.0470  -26.1476 C   0  0  0  0  0  0  0  0  0  0  0  0
  -12.8278    9.7127  -26.3151 N   0  0  0  0  0  0  0  0  0  0  0  0
  -11.5356    9.4679  -26.0123 C   0  0  0  0  0  0  0  0  0  0  0  0
  -10.9961   10.6870  -25.6592 C   0  0  0  0  0  0  0  0  0  0  0  0
   -9.6894   10.6838  -25.3111 N   0  0  0  0  0  0  0  0  0  0  0  0
   -8.9577    9.5566  -25.3094 C   0  0  0  0  0  0  0  0  0  0  0  0
   -9.5055    8.3827  -25.6571 N   0  0  0  0  0  0  0  0  0  0  0  0
  -10.7984    8.3025  -26.0157 C   0  0  0  0  0  0  0  0  0  0  0  0
  -11.3334    7.0427  -26.3747 N   0  0  0  0  0  0  0  0  0  0  0  0
  -10.3133   14.1749  -23.9290 O   0  0  0  0  0  0  0  0  0  0  0  0
  -12.2982   14.1221  -22.0904 O   0  0  0  0  0  0  0  0  0  0  0  0
  -14.9526   15.1082  -25.0545 H   0  0  0  0  0  0  0  0  0  0  0  0
  -14.4561   15.8009  -23.4462 H   0  0  0  0  0  0  0  0  0  0  0  0
  -12.3507   15.3336  -24.3893 H   0  0  0  0  0  0  0  0  0  0  0  0
  -13.1876   12.6366  -23.2510 H   0  0  0  0  0  0  0  0  0  0  0  0
  -10.8110   12.1647  -23.6623 H   0  0  0  0  0  0  0  0  0  0  0  0
  -10.9347   13.4655  -26.1328 H   0  0  0  0  0  0  0  0  0  0  0  0
  -14.0012   11.5766  -26.3082 H   0  0  0  0  0  0  0  0  0  0  0  0
   -7.9013    9.5460  -25.0294 H   0  0  0  0  0  0  0  0  0  0  0  0
  -11.4616    6.2435  -25.7503 H   0  0  0  0  0  0  0  0  0  0  0  0
  -11.6290    6.9130  -27.3829 H   0  0  0  0  0  0  0  0  0  0  0  0
   -9.8532   14.2601  -24.8014 H   0  0  0  0  0  0  0  0  0  0  0  0
  -12.0424   13.4312  -21.4454 H   0  0  0  0  0  0  0  0  0  0  0  0
  1  2  1  0
  2  3  1  0
  3  4  1  0
  4  5  1  0
  5  6  1  0
  5  7  1  0
  7  8  1  0
  8  9  2  0
  9 10  1  0
 10 11  2  0
 11 12  1  0
 12 13  2  0
 13 14  1  0
 14 15  2  0
 15 16  1  0
  4 17  1  0
  3 18  1  0
  6  2  1  0
 11  7  1  0
 15 10  1  0
  1 19  1  0
  1 20  1  0
  2 21  1  0
  3 22  1  0
  4 23  1  0
  5 24  1  0
  8 25  1  0
 13 26  1  0
 16 27  1  0
 16 28  1  0
 17 29  1  0
 18 30  1  0
M  RAD  1   1   2
M  END
$$$$

     RDKit          3D

 30 32  0  0  0  0  0  0  0  0999 V2000
  -14.3644   15.2422  -24.3199 C   0  0  0  0  0  3  0  0  0  0  0  0
  -13.3476   14.2288  -24.7833 C   0  0  0  0  0  0  0  0  0  0  0  0
  -11.9869   14.7208  -24.3198 C   0  0  0  0  0  0  0  0  0  0  0  0
  -11.1882   13.4285  -24.5404 C   0  0  0  0  0  0  0  0  0  0  0  0
  -12.2216   12.4108  -24.1221 C   0  0  0  0  0  0  0  0  0  0  0  0
  -13.4503   13.0185  -24.1391 O   0  0  0  0  0  0  0  0  0  0  0  0
  -12.1845   11.2263  -24.9358 N   0  0  0  0  0  0  0  0  0  0  0  0
  -13.2582   10.6734  -25.5260 C   0  0  0  0  0  0  0  0  0  0  0  0
  -12.8199    9.5801  -26.1992 N   0  0  0  0  0  0  0  0  0  0  0  0
  -11.5054    9.4182  -26.0580 C   0  0  0  0  0  0  0  0  0  0  0  0
  -11.1013   10.4823  -25.2426 C   0  0  0  0  0  0  0  0  0  0  0  0
   -9.7970   10.5662  -24.9329 N   0  0  0  0  0  0  0  0  0  0  0  0
   -8.8949    9.6812  -25.3723 C   0  0  0  0  0  0  0  0  0  0  0  0
   -9.3145    8.6727  -26.1521 N   0  0  0  0  0  0  0  0  0  0  0  0
  -10.5936    8.4936  -26.5229 C   0  0  0  0  0  0  0  0  0  0  0  0
  -10.9861    7.4078  -27.3511 N   0  0  0  0  0  0  0  0  0  0  0  0
  -10.0460   13.3869  -23.7823 O   0  0  0  0  0  0  0  0  0  0  0  0
  -12.0665   14.9697  -22.9561 O   0  0  0  0  0  0  0  0  0  0  0  0
  -15.2485   15.3025  -24.9826 H   0  0  0  0  0  0  0  0  0  0  0  0
  -13.9227   16.2284  -24.0959 H   0  0  0  0  0  0  0  0  0  0  0  0
  -13.3628   14.0893  -25.8820 H   0  0  0  0  0  0  0  0  0  0  0  0
  -11.6046   15.5529  -24.9000 H   0  0  0  0  0  0  0  0  0  0  0  0
  -11.0066   13.2897  -25.6284 H   0  0  0  0  0  0  0  0  0  0  0  0
  -11.9882   12.1661  -23.0441 H   0  0  0  0  0  0  0  0  0  0  0  0
  -14.2907   10.9971  -25.5008 H   0  0  0  0  0  0  0  0  0  0  0  0
   -7.8316    9.7630  -25.1105 H   0  0  0  0  0  0  0  0  0  0  0  0
  -10.5111    6.4903  -27.2607 H   0  0  0  0  0  0  0  0  0  0  0  0
  -11.7409    7.4992  -28.0532 H   0  0  0  0  0  0  0  0  0  0  0  0
   -9.2135   13.2778  -24.3362 H   0  0  0  0  0  0  0  0  0  0  0  0
  -12.7126   14.3841  -22.5113 H   0  0  0  0  0  0  0  0  0  0  0  0
  1  2  1  0
  2  3  1  0
  3  4  1  0
  4  5  1  0
  5  6  1  0
  5  7  1  0
  7  8  1  0
  8  9  2  0
  9 10  1  0
 10 11  2  0
 11 12  1  0
 12 13  2  0
 13 14  1  0
 14 15  2  0
 15 16  1  0
  4 17  1  0
  3 18  1  0
  6  2  1  0
 11  7  1  0
 15 10  1  0
  1 19  1  0
  1 20  1  0
  2 21  1  0
  3 22  1  0
  4 23  1  0
  5 24  1  0
  8 25  1  0
 13 26  1  0
 16 27  1  0
 16 28  1  0
 17 29  1  0
 18 30  1  0
M  RAD  1   1   2
M  END
$$$$

     RDKit          3D

 30 32  0  0  0  0  0  0  0  0999 V2000
  -11.7578   15.7652  -24.7445 C   0  0  0  0  0  3  0  0  0  0  0  0
  -12.9034   14.7640  -24.8781 C   0  0  0  0  0  0  0  0  0  0  0  0
  -13.1592   14.0553  -23.5516 C   0  0  0  0  0  0  0  0  0  0  0  0
  -11.9897   13.1005  -23.5268 C   0  0  0  0  0  0  0  0  0  0  0  0
  -11.7024   12.8830  -24.9714 C   0  0  0  0  0  0  0  0  0  0  0  0
  -12.4840   13.7584  -25.7100 O   0  0  0  0  0  0  0  0  0  0  0  0
  -11.8998   11.5261  -25.4084 N   0  0  0  0  0  0  0  0  0  0  0  0
  -13.0331   10.8990  -25.7470 C   0  0  0  0  0  0  0  0  0  0  0  0
  -12.7957    9.6339  -26.0992 N   0  0  0  0  0  0  0  0  0  0  0  0
  -11.4783    9.4496  -25.9824 C   0  0  0  0  0  0  0  0  0  0  0  0
  -10.9168   10.6291  -25.5514 C   0  0  0  0  0  0  0  0  0  0  0  0
   -9.5854   10.6804  -25.3614 N   0  0  0  0  0  0  0  0  0  0  0  0
   -8.7805    9.6405  -25.5710 C   0  0  0  0  0  0  0  0  0  0  0  0
   -9.3401    8.4843  -25.9947 N   0  0  0  0  0  0  0  0  0  0  0  0
  -10.6654    8.3549  -26.2076 C   0  0  0  0  0  0  0  0  0  0  0  0
  -11.2037    7.1133  -26.6544 N   0  0  0  0  0  0  0  0  0  0  0  0
  -12.2495   11.9510  -22.8123 O   0  0  0  0  0  0  0  0  0  0  0  0
  -13.1824   14.9196  -22.4836 O   0  0  0  0  0  0  0  0  0  0  0  0
  -10.8429   15.2148  -24.3812 H   0  0  0  0  0  0  0  0  0  0  0  0
  -11.5148   16.0839  -25.7835 H   0  0  0  0  0  0  0  0  0  0  0  0
  -13.7770   15.2885  -25.2567 H   0  0  0  0  0  0  0  0  0  0  0  0
  -14.1312   13.5318  -23.6568 H   0  0  0  0  0  0  0  0  0  0  0  0
  -11.1599   13.6304  -23.0024 H   0  0  0  0  0  0  0  0  0  0  0  0
  -10.6368   13.1942  -25.1514 H   0  0  0  0  0  0  0  0  0  0  0  0
  -14.0517   11.3222  -25.7523 H   0  0  0  0  0  0  0  0  0  0  0  0
   -7.7219    9.7545  -25.3977 H   0  0  0  0  0  0  0  0  0  0  0  0
  -12.0753    7.0968  -27.2032 H   0  0  0  0  0  0  0  0  0  0  0  0
  -10.7413    6.2035  -26.4438 H   0  0  0  0  0  0  0  0  0  0  0  0
  -13.1085   11.5239  -23.0293 H   0  0  0  0  0  0  0  0  0  0  0  0
  -14.1437   15.1896  -22.3450 H   0  0  0  0  0  0  0  0  0  0  0  0
  1  2  1  0
  2  3  1  0
  3  4  1  0
  4  5  1  0
  5  6  1  0
  5  7  1  0
  7  8  1  0
  8  9  2  0
  9 10  1  0
 10 11  2  0
 11 12  1  0
 12 13  2  0
 13 14  1  0
 14 15  2  0
 15 16  1  0
  4 17  1  0
  3 18  1  0
  6  2  1  0
 11  7  1  0
 15 10  1  0
  1 19  1  0
  1 20  1  0
  2 21  1  0
  3 22  1  0
  4 23  1  0
  5 24  1  0
  8 25  1  0
 13 26  1  0
 16 27  1  0
 16 28  1  0
 17 29  1  0
 18 30  1  0
M  RAD  1   1   2
M  END
$$$$

     RDKit          3D

 30 32  0  0  0  0  0  0  0  0999 V2000
  -14.4142   14.7459  -24.9349 C   0  0  0  0  0  3  0  0  0  0  0  0
  -13.2445   13.7947  -24.9071 C   0  0  0  0  0  0  0  0  0  0  0  0
  -11.9400   14.5654  -24.6668 C   0  0  0  0  0  0  0  0  0  0  0  0
  -11.0222   13.4052  -24.2669 C   0  0  0  0  0  0  0  0  0  0  0  0
  -12.0112   12.3648  -23.8019 C   0  0  0  0  0  0  0  0  0  0  0  0
  -13.2640   12.9758  -23.7783 O   0  0  0  0  0  0  0  0  0  0  0  0
  -12.0930   11.2343  -24.7093 N   0  0  0  0  0  0  0  0  0  0  0  0
  -13.1934   10.7199  -25.2870 C   0  0  0  0  0  0  0  0  0  0  0  0
  -12.8886    9.6743  -26.0671 N   0  0  0  0  0  0  0  0  0  0  0  0
  -11.5606    9.5230  -25.9809 C   0  0  0  0  0  0  0  0  0  0  0  0
  -11.0473   10.4924  -25.1342 C   0  0  0  0  0  0  0  0  0  0  0  0
   -9.7199   10.4975  -24.9242 N   0  0  0  0  0  0  0  0  0  0  0  0
   -8.9177    9.5832  -25.5234 C   0  0  0  0  0  0  0  0  0  0  0  0
   -9.4331    8.6467  -26.3443 N   0  0  0  0  0  0  0  0  0  0  0  0
  -10.7532    8.5796  -26.6022 C   0  0  0  0  0  0  0  0  0  0  0  0
  -11.3096    7.6059  -27.4590 N   0  0  0  0  0  0  0  0  0  0  0  0
  -10.1329   13.7887  -23.2729 O   0  0  0  0  0  0  0  0  0  0  0  0
  -12.1816   15.4108  -23.5956 O   0  0  0  0  0  0  0  0  0  0  0  0
  -15.3111   14.1916  -25.2132 H   0  0  0  0  0  0  0  0  0  0  0  0
  -14.2239   15.4998  -25.7159 H   0  0  0  0  0  0  0  0  0  0  0  0
  -13.1681   13.1810  -25.8299 H   0  0  0  0  0  0  0  0  0  0  0  0
  -11.5927   15.0739  -25.5719 H   0  0  0  0  0  0  0  0  0  0  0  0
  -10.4984   13.0793  -25.1837 H   0  0  0  0  0  0  0  0  0  0  0  0
  -11.7401   11.9660  -22.8002 H   0  0  0  0  0  0  0  0  0  0  0  0
  -14.1831   11.1255  -25.1195 H   0  0  0  0  0  0  0  0  0  0  0  0
   -7.8550    9.5642  -25.3735 H   0  0  0  0  0  0  0  0  0  0  0  0
  -12.0765    7.8677  -28.1134 H   0  0  0  0  0  0  0  0  0  0  0  0
  -10.9640    6.6412  -27.4421 H   0  0  0  0  0  0  0  0  0  0  0  0
   -9.2037   13.7492  -23.6505 H   0  0  0  0  0  0  0  0  0  0  0  0
  -11.3831   15.7924  -23.1877 H   0  0  0  0  0  0  0  0  0  0  0  0
  1  2  1  0
  2  3  1  0
  3  4  1  0
  4  5  1  0
  5  6  1  0
  5  7  1  0
  7  8  1  0
  8  9  2  0
  9 10  1  0
 10 11  2  0
 11 12  1  0
 12 13  2  0
 13 14  1  0
 14 15  2  0
 15 16  1  0
  4 17  1  0
  3 18  1  0
  6  2  1  0
 11  7  1  0
 15 10  1  0
  1 19  1  0
  1 20  1  0
  2 21  1  0
  3 22  1  0
  4 23  1  0
  5 24  1  0
  8 25  1  0
 13 26  1  0
 16 27  1  0
 16 28  1  0
 17 29  1  0
 18 30  1  0
M  RAD  1   1   2
M  END
$$$$

     RDKit          3D

 30 32  0  0  0  0  0  0  0  0999 V2000
  -12.5569   15.5438  -25.2982 C   0  0  0  0  0  3  0  0  0  0  0  0
  -11.5965   14.6986  -24.5423 C   0  0  0  0  0  0  0  0  0  0  0  0
  -12.2324   14.2619  -23.2173 C   0  0  0  0  0  0  0  0  0  0  0  0
  -12.8205   12.8991  -23.5834 C   0  0  0  0  0  0  0  0  0  0  0  0
  -12.4089   12.7549  -25.0050 C   0  0  0  0  0  0  0  0  0  0  0  0
  -11.2515   13.5196  -25.1920 O   0  0  0  0  0  0  0  0  0  0  0  0
  -12.2734   11.4087  -25.4732 N   0  0  0  0  0  0  0  0  0  0  0  0
  -13.2944   10.6569  -25.9333 C   0  0  0  0  0  0  0  0  0  0  0  0
  -12.8619    9.4367  -26.3015 N   0  0  0  0  0  0  0  0  0  0  0  0
  -11.5311    9.4417  -26.0585 C   0  0  0  0  0  0  0  0  0  0  0  0
  -11.1576   10.6616  -25.5444 C   0  0  0  0  0  0  0  0  0  0  0  0
   -9.8835   10.9108  -25.2223 N   0  0  0  0  0  0  0  0  0  0  0  0
   -8.9808    9.9402  -25.4139 C   0  0  0  0  0  0  0  0  0  0  0  0
   -9.3098    8.7392  -25.9131 N   0  0  0  0  0  0  0  0  0  0  0  0
  -10.5893    8.4492  -26.2511 C   0  0  0  0  0  0  0  0  0  0  0  0
  -10.9251    7.1707  -26.7799 N   0  0  0  0  0  0  0  0  0  0  0  0
  -12.2556   11.9695  -22.7256 O   0  0  0  0  0  0  0  0  0  0  0  0
  -13.1981   15.1449  -22.8011 O   0  0  0  0  0  0  0  0  0  0  0  0
  -12.4067   15.5941  -26.3752 H   0  0  0  0  0  0  0  0  0  0  0  0
  -13.6058   15.4662  -24.9789 H   0  0  0  0  0  0  0  0  0  0  0  0
  -10.6731   15.2856  -24.3591 H   0  0  0  0  0  0  0  0  0  0  0  0
  -11.3834   14.1567  -22.5046 H   0  0  0  0  0  0  0  0  0  0  0  0
  -13.9332   12.9242  -23.4642 H   0  0  0  0  0  0  0  0  0  0  0  0
  -13.1954   13.2470  -25.6187 H   0  0  0  0  0  0  0  0  0  0  0  0
  -14.3528   10.9309  -26.0249 H   0  0  0  0  0  0  0  0  0  0  0  0
   -7.9506   10.1350  -25.1559 H   0  0  0  0  0  0  0  0  0  0  0  0
  -10.7031    6.3066  -26.2381 H   0  0  0  0  0  0  0  0  0  0  0  0
  -11.3919    7.0345  -27.6998 H   0  0  0  0  0  0  0  0  0  0  0  0
  -12.2124   12.4083  -21.8245 H   0  0  0  0  0  0  0  0  0  0  0  0
  -13.1058   15.2796  -21.8083 H   0  0  0  0  0  0  0  0  0  0  0  0
  1  2  1  0
  2  3  1  0
  3  4  1  0
  4  5  1  0
  5  6  1  0
  5  7  1  0
  7  8  1  0
  8  9  2  0
  9 10  1  0
 10 11  2  0
 11 12  1  0
 12 13  2  0
 13 14  1  0
 14 15  2  0
 15 16  1  0
  4 17  1  0
  3 18  1  0
  6  2  1  0
 11  7  1  0
 15 10  1  0
  1 19  1  0
  1 20  1  0
  2 21  1  0
  3 22  1  0
  4 23  1  0
  5 24  1  0
  8 25  1  0
 13 26  1  0
 16 27  1  0
 16 28  1  0
 17 29  1  0
 18 30  1  0
M  RAD  1   1   2
M  END
$$$$

     RDKit          3D

 30 32  0  0  0  0  0  0  0  0999 V2000
  -13.7507   13.9587  -22.1329 C   0  0  0  0  0  3  0  0  0  0  0  0
  -13.1513   13.8742  -23.4871 C   0  0  0  0  0  0  0  0  0  0  0  0
  -11.6447   14.0709  -23.4989 C   0  0  0  0  0  0  0  0  0  0  0  0
  -11.3224   13.5955  -24.9167 C   0  0  0  0  0  0  0  0  0  0  0  0
  -12.5531   12.7612  -25.2394 C   0  0  0  0  0  0  0  0  0  0  0  0
  -13.2317   12.5782  -24.0443 O   0  0  0  0  0  0  0  0  0  0  0  0
  -12.2086   11.5297  -25.8886 N   0  0  0  0  0  0  0  0  0  0  0  0
  -12.6676   11.0869  -27.0785 C   0  0  0  0  0  0  0  0  0  0  0  0
  -12.1184    9.8843  -27.3633 N   0  0  0  0  0  0  0  0  0  0  0  0
  -11.3032    9.5538  -26.3514 C   0  0  0  0  0  0  0  0  0  0  0  0
  -11.3732   10.5934  -25.4410 C   0  0  0  0  0  0  0  0  0  0  0  0
  -10.6101   10.4525  -24.3275 N   0  0  0  0  0  0  0  0  0  0  0  0
   -9.8394    9.3835  -24.1170 C   0  0  0  0  0  0  0  0  0  0  0  0
   -9.7811    8.3795  -25.0116 N   0  0  0  0  0  0  0  0  0  0  0  0
  -10.5159    8.4380  -26.1598 C   0  0  0  0  0  0  0  0  0  0  0  0
  -10.4859    7.4153  -27.1192 N   0  0  0  0  0  0  0  0  0  0  0  0
  -11.3040   14.6826  -25.8004 O   0  0  0  0  0  0  0  0  0  0  0  0
  -11.2657   15.3697  -23.2783 O   0  0  0  0  0  0  0  0  0  0  0  0
  -14.3673   14.8906  -22.0467 H   0  0  0  0  0  0  0  0  0  0  0  0
  -13.0322   13.8605  -21.2978 H   0  0  0  0  0  0  0  0  0  0  0  0
  -13.5882   14.5752  -24.2189 H   0  0  0  0  0  0  0  0  0  0  0  0
  -11.1628   13.3616  -22.7793 H   0  0  0  0  0  0  0  0  0  0  0  0
  -10.3968   13.0126  -24.9581 H   0  0  0  0  0  0  0  0  0  0  0  0
  -13.2522   13.3453  -25.9052 H   0  0  0  0  0  0  0  0  0  0  0  0
  -13.3642   11.5931  -27.7226 H   0  0  0  0  0  0  0  0  0  0  0  0
   -9.2366    9.2831  -23.2269 H   0  0  0  0  0  0  0  0  0  0  0  0
  -10.1825    6.4360  -26.9213 H   0  0  0  0  0  0  0  0  0  0  0  0
  -10.7806    7.6224  -28.0983 H   0  0  0  0  0  0  0  0  0  0  0  0
  -12.1406   14.7187  -26.3416 H   0  0  0  0  0  0  0  0  0  0  0  0
  -10.5262   15.3539  -22.5903 H   0  0  0  0  0  0  0  0  0  0  0  0
  1  2  1  0
  2  3  1  0
  3  4  1  0
  4  5  1  0
  5  6  1  0
  5  7  1  0
  7  8  1  0
  8  9  2  0
  9 10  1  0
 10 11  2  0
 11 12  1  0
 12 13  2  0
 13 14  1  0
 14 15  2  0
 15 16  1  0
  4 17  1  0
  3 18  1  0
  6  2  1  0
 11  7  1  0
 15 10  1  0
  1 19  1  0
  1 20  1  0
  2 21  1  0
  3 22  1  0
  4 23  1  0
  5 24  1  0
  8 25  1  0
 13 26  1  0
 16 27  1  0
 16 28  1  0
 17 29  1  0
 18 30  1  0
M  RAD  1   1   2
M  END
$$$$

     RDKit          3D

 30 32  0  0  0  0  0  0  0  0999 V2000
  -13.2156   15.1946  -26.0741 C   0  0  0  0  0  3  0  0  0  0  0  0
  -12.2656   14.7394  -24.9799 C   0  0  0  0  0  0  0  0  0  0  0  0
  -13.0646   14.3627  -23.7669 C   0  0  0  0  0  0  0  0  0  0  0  0
  -12.4660   13.0617  -23.3228 C   0  0  0  0  0  0  0  0  0  0  0  0
  -11.5079   12.7101  -24.4070 C   0  0  0  0  0  0  0  0  0  0  0  0
  -11.5384   13.6592  -25.3819 O   0  0  0  0  0  0  0  0  0  0  0  0
  -11.7707   11.3774  -24.9649 N   0  0  0  0  0  0  0  0  0  0  0  0
  -12.9749   10.7982  -25.1071 C   0  0  0  0  0  0  0  0  0  0  0  0
  -12.8348    9.5658  -25.6584 N   0  0  0  0  0  0  0  0  0  0  0  0
  -11.5212    9.3487  -25.8742 C   0  0  0  0  0  0  0  0  0  0  0  0
  -10.8769   10.4860  -25.4367 C   0  0  0  0  0  0  0  0  0  0  0  0
   -9.5472   10.5165  -25.5458 N   0  0  0  0  0  0  0  0  0  0  0  0
   -8.8680    9.4765  -26.0627 C   0  0  0  0  0  0  0  0  0  0  0  0
   -9.5144    8.3535  -26.4938 N   0  0  0  0  0  0  0  0  0  0  0  0
  -10.8507    8.2690  -26.4077 C   0  0  0  0  0  0  0  0  0  0  0  0
  -11.4807    7.0843  -26.8673 N   0  0  0  0  0  0  0  0  0  0  0  0
  -11.8651   13.2390  -22.0796 O   0  0  0  0  0  0  0  0  0  0  0  0
  -12.9644   15.3656  -22.8252 O   0  0  0  0  0  0  0  0  0  0  0  0
  -13.9149   15.9608  -25.6854 H   0  0  0  0  0  0  0  0  0  0  0  0
  -13.7385   14.3058  -26.4698 H   0  0  0  0  0  0  0  0  0  0  0  0
  -11.5623   15.5678  -24.7532 H   0  0  0  0  0  0  0  0  0  0  0  0
  -14.1391   14.1556  -24.0314 H   0  0  0  0  0  0  0  0  0  0  0  0
  -13.2304   12.2671  -23.1948 H   0  0  0  0  0  0  0  0  0  0  0  0
  -10.4737   12.7303  -23.9510 H   0  0  0  0  0  0  0  0  0  0  0  0
  -13.9360   11.2044  -24.8412 H   0  0  0  0  0  0  0  0  0  0  0  0
   -7.7884    9.5488  -26.1305 H   0  0  0  0  0  0  0  0  0  0  0  0
  -11.2561    6.6780  -27.7824 H   0  0  0  0  0  0  0  0  0  0  0  0
  -12.2056    6.5814  -26.2760 H   0  0  0  0  0  0  0  0  0  0  0  0
  -10.9183   13.5053  -22.2020 H   0  0  0  0  0  0  0  0  0  0  0  0
  -13.2031   15.0745  -21.9121 H   0  0  0  0  0  0  0  0  0  0  0  0
  1  2  1  0
  2  3  1  0
  3  4  1  0
  4  5  1  0
  5  6  1  0
  5  7  1  0
  7  8  1  0
  8  9  2  0
  9 10  1  0
 10 11  2  0
 11 12  1  0
 12 13  2  0
 13 14  1  0
 14 15  2  0
 15 16  1  0
  4 17  1  0
  3 18  1  0
  6  2  1  0
 11  7  1  0
 15 10  1  0
  1 19  1  0
  1 20  1  0
  2 21  1  0
  3 22  1  0
  4 23  1  0
  5 24  1  0
  8 25  1  0
 13 26  1  0
 16 27  1  0
 16 28  1  0
 17 29  1  0
 18 30  1  0
M  RAD  1   1   2
M  END
$$$$

     RDKit          3D

 30 32  0  0  0  0  0  0  0  0999 V2000
  -13.1422   15.5628  -25.1579 C   0  0  0  0  0  3  0  0  0  0  0  0
  -11.9580   14.7465  -24.6350 C   0  0  0  0  0  0  0  0  0  0  0  0
  -12.2037   14.2958  -23.2082 C   0  0  0  0  0  0  0  0  0  0  0  0
  -12.0146   12.7886  -23.3443 C   0  0  0  0  0  0  0  0  0  0  0  0
  -12.5272   12.6411  -24.7625 C   0  0  0  0  0  0  0  0  0  0  0  0
  -11.7791   13.6222  -25.4012 O   0  0  0  0  0  0  0  0  0  0  0  0
  -12.3932   11.3427  -25.3041 N   0  0  0  0  0  0  0  0  0  0  0  0
  -13.3989   10.5666  -25.7518 C   0  0  0  0  0  0  0  0  0  0  0  0
  -12.9001    9.3871  -26.2008 N   0  0  0  0  0  0  0  0  0  0  0  0
  -11.5740    9.3912  -26.0478 C   0  0  0  0  0  0  0  0  0  0  0  0
  -11.2807   10.6372  -25.4798 C   0  0  0  0  0  0  0  0  0  0  0  0
  -10.0044   10.9009  -25.2211 N   0  0  0  0  0  0  0  0  0  0  0  0
   -8.9862   10.0576  -25.4666 C   0  0  0  0  0  0  0  0  0  0  0  0
   -9.2966    8.8674  -26.0126 N   0  0  0  0  0  0  0  0  0  0  0  0
  -10.5551    8.5010  -26.3133 C   0  0  0  0  0  0  0  0  0  0  0  0
  -10.9037    7.2494  -26.8900 N   0  0  0  0  0  0  0  0  0  0  0  0
  -10.6688   12.5537  -23.2217 O   0  0  0  0  0  0  0  0  0  0  0  0
  -13.5405   14.4960  -22.8374 O   0  0  0  0  0  0  0  0  0  0  0  0
  -13.6935   14.9332  -25.9094 H   0  0  0  0  0  0  0  0  0  0  0  0
  -13.8382   15.8143  -24.3107 H   0  0  0  0  0  0  0  0  0  0  0  0
  -11.0405   15.3998  -24.6001 H   0  0  0  0  0  0  0  0  0  0  0  0
  -11.4989   14.7383  -22.4894 H   0  0  0  0  0  0  0  0  0  0  0  0
  -12.6383   12.2351  -22.6172 H   0  0  0  0  0  0  0  0  0  0  0  0
  -13.5781   12.9995  -24.7534 H   0  0  0  0  0  0  0  0  0  0  0  0
  -14.4617   10.8370  -25.7571 H   0  0  0  0  0  0  0  0  0  0  0  0
   -7.9450   10.3265  -25.2325 H   0  0  0  0  0  0  0  0  0  0  0  0
  -11.4073    6.5022  -26.3659 H   0  0  0  0  0  0  0  0  0  0  0  0
  -10.6611    7.0313  -27.8822 H   0  0  0  0  0  0  0  0  0  0  0  0
  -10.1248   13.3332  -23.0113 H   0  0  0  0  0  0  0  0  0  0  0  0
  -13.9200   13.7050  -22.3707 H   0  0  0  0  0  0  0  0  0  0  0  0
  1  2  1  0
  2  3  1  0
  3  4  1  0
  4  5  1  0
  5  6  1  0
  5  7  1  0
  7  8  1  0
  8  9  2  0
  9 10  1  0
 10 11  2  0
 11 12  1  0
 12 13  2  0
 13 14  1  0
 14 15  2  0
 15 16  1  0
  4 17  1  0
  3 18  1  0
  6  2  1  0
 11  7  1  0
 15 10  1  0
  1 19  1  0
  1 20  1  0
  2 21  1  0
  3 22  1  0
  4 23  1  0
  5 24  1  0
  8 25  1  0
 13 26  1  0
 16 27  1  0
 16 28  1  0
 17 29  1  0
 18 30  1  0
M  RAD  1   1   2
M  END
$$$$

     RDKit          3D

 30 32  0  0  0  0  0  0  0  0999 V2000
  -13.3513   15.7176  -24.7428 C   0  0  0  0  0  3  0  0  0  0  0  0
  -13.3180   14.4222  -23.9529 C   0  0  0  0  0  0  0  0  0  0  0  0
  -11.9577   14.3297  -23.3013 C   0  0  0  0  0  0  0  0  0  0  0  0
  -11.6609   12.8486  -23.5272 C   0  0  0  0  0  0  0  0  0  0  0  0
  -12.1990   12.7765  -24.9633 C   0  0  0  0  0  0  0  0  0  0  0  0
  -13.4440   13.3228  -24.7922 O   0  0  0  0  0  0  0  0  0  0  0  0
  -12.1987   11.4068  -25.3502 N   0  0  0  0  0  0  0  0  0  0  0  0
  -13.2412   10.5670  -25.5139 C   0  0  0  0  0  0  0  0  0  0  0  0
  -12.7588    9.3544  -25.8904 N   0  0  0  0  0  0  0  0  0  0  0  0
  -11.4383    9.4205  -25.9648 C   0  0  0  0  0  0  0  0  0  0  0  0
  -11.0818   10.7082  -25.6262 C   0  0  0  0  0  0  0  0  0  0  0  0
   -9.7632   11.0021  -25.6360 N   0  0  0  0  0  0  0  0  0  0  0  0
   -8.8153   10.1007  -25.9574 C   0  0  0  0  0  0  0  0  0  0  0  0
   -9.1604    8.8599  -26.2836 N   0  0  0  0  0  0  0  0  0  0  0  0
  -10.4553    8.5114  -26.2908 C   0  0  0  0  0  0  0  0  0  0  0  0
  -10.8177    7.1896  -26.6387 N   0  0  0  0  0  0  0  0  0  0  0  0
  -12.4600   12.0461  -22.7518 O   0  0  0  0  0  0  0  0  0  0  0  0
  -11.0055   15.0238  -24.0726 O   0  0  0  0  0  0  0  0  0  0  0  0
  -14.3128   15.8971  -25.2206 H   0  0  0  0  0  0  0  0  0  0  0  0
  -13.0981   16.5282  -24.0306 H   0  0  0  0  0  0  0  0  0  0  0  0
  -14.1416   14.3656  -23.2097 H   0  0  0  0  0  0  0  0  0  0  0  0
  -11.9454   14.6145  -22.2557 H   0  0  0  0  0  0  0  0  0  0  0  0
  -10.6113   12.6039  -23.4591 H   0  0  0  0  0  0  0  0  0  0  0  0
  -11.5588   13.3506  -25.6572 H   0  0  0  0  0  0  0  0  0  0  0  0
  -14.2897   10.7863  -25.3781 H   0  0  0  0  0  0  0  0  0  0  0  0
   -7.7959   10.4467  -25.9315 H   0  0  0  0  0  0  0  0  0  0  0  0
  -11.4917    7.0562  -27.4229 H   0  0  0  0  0  0  0  0  0  0  0  0
  -10.4363    6.3624  -26.1418 H   0  0  0  0  0  0  0  0  0  0  0  0
  -13.4140   12.3111  -22.9050 H   0  0  0  0  0  0  0  0  0  0  0  0
  -10.1441   14.5019  -24.0784 H   0  0  0  0  0  0  0  0  0  0  0  0
  1  2  1  0
  2  3  1  0
  3  4  1  0
  4  5  1  0
  5  6  1  0
  5  7  1  0
  7  8  1  0
  8  9  2  0
  9 10  1  0
 10 11  2  0
 11 12  1  0
 12 13  2  0
 13 14  1  0
 14 15  2  0
 15 16  1  0
  4 17  1  0
  3 18  1  0
  6  2  1  0
 11  7  1  0
 15 10  1  0
  1 19  1  0
  1 20  1  0
  2 21  1  0
  3 22  1  0
  4 23  1  0
  5 24  1  0
  8 25  1  0
 13 26  1  0
 16 27  1  0
 16 28  1  0
 17 29  1  0
 18 30  1  0
M  RAD  1   1   2
M  END
$$$$

     RDKit          3D

 30 32  0  0  0  0  0  0  0  0999 V2000
  -14.6982   14.3152  -23.9931 C   0  0  0  0  0  3  0  0  0  0  0  0
  -13.2445   14.0419  -23.6727 C   0  0  0  0  0  0  0  0  0  0  0  0
  -12.3446   14.3942  -24.8515 C   0  0  0  0  0  0  0  0  0  0  0  0
  -11.1362   13.5522  -24.4960 C   0  0  0  0  0  0  0  0  0  0  0  0
  -11.8014   12.3468  -23.8926 C   0  0  0  0  0  0  0  0  0  0  0  0
  -13.0323   12.7141  -23.4236 O   0  0  0  0  0  0  0  0  0  0  0  0
  -11.9283   11.3373  -24.9315 N   0  0  0  0  0  0  0  0  0  0  0  0
  -12.9362   11.2244  -25.8141 C   0  0  0  0  0  0  0  0  0  0  0  0
  -12.6471   10.1538  -26.5891 N   0  0  0  0  0  0  0  0  0  0  0  0
  -11.4937    9.6110  -26.2056 C   0  0  0  0  0  0  0  0  0  0  0  0
  -11.0236   10.3584  -25.1462 C   0  0  0  0  0  0  0  0  0  0  0  0
   -9.8444   10.0367  -24.5368 N   0  0  0  0  0  0  0  0  0  0  0  0
   -9.1108    8.9879  -24.9486 C   0  0  0  0  0  0  0  0  0  0  0  0
   -9.5766    8.2660  -25.9808 N   0  0  0  0  0  0  0  0  0  0  0  0
  -10.7227    8.5295  -26.6191 C   0  0  0  0  0  0  0  0  0  0  0  0
  -11.1917    7.7534  -27.7042 N   0  0  0  0  0  0  0  0  0  0  0  0
  -10.3504   14.2361  -23.5750 O   0  0  0  0  0  0  0  0  0  0  0  0
  -12.0442   15.7491  -24.8753 O   0  0  0  0  0  0  0  0  0  0  0  0
  -15.2895   13.8597  -23.1635 H   0  0  0  0  0  0  0  0  0  0  0  0
  -15.0199   13.8379  -24.9420 H   0  0  0  0  0  0  0  0  0  0  0  0
  -12.9811   14.6970  -22.8146 H   0  0  0  0  0  0  0  0  0  0  0  0
  -12.8415   14.0456  -25.7607 H   0  0  0  0  0  0  0  0  0  0  0  0
  -10.5210   13.3103  -25.3815 H   0  0  0  0  0  0  0  0  0  0  0  0
  -11.1957   11.9241  -23.0613 H   0  0  0  0  0  0  0  0  0  0  0  0
  -13.8288   11.8631  -25.9071 H   0  0  0  0  0  0  0  0  0  0  0  0
   -8.1701    8.7272  -24.4661 H   0  0  0  0  0  0  0  0  0  0  0  0
  -11.5307    8.2875  -28.5493 H   0  0  0  0  0  0  0  0  0  0  0  0
  -11.1937    6.7208  -27.6517 H   0  0  0  0  0  0  0  0  0  0  0  0
  -10.8775   14.6989  -22.8997 H   0  0  0  0  0  0  0  0  0  0  0  0
  -12.2625   16.0705  -25.7975 H   0  0  0  0  0  0  0  0  0  0  0  0
  1  2  1  0
  2  3  1  0
  3  4  1  0
  4  5  1  0
  5  6  1  0
  5  7  1  0
  7  8  1  0
  8  9  2  0
  9 10  1  0
 10 11  2  0
 11 12  1  0
 12 13  2  0
 13 14  1  0
 14 15  2  0
 15 16  1  0
  4 17  1  0
  3 18  1  0
  6  2  1  0
 11  7  1  0
 15 10  1  0
  1 19  1  0
  1 20  1  0
  2 21  1  0
  3 22  1  0
  4 23  1  0
  5 24  1  0
  8 25  1  0
 13 26  1  0
 16 27  1  0
 16 28  1  0
 17 29  1  0
 18 30  1  0
M  RAD  1   1   2
M  END
$$$$

     RDKit          3D

 30 32  0  0  0  0  0  0  0  0999 V2000
  -11.6047   14.5128  -22.1540 C   0  0  0  0  0  3  0  0  0  0  0  0
  -12.6029   13.7263  -22.9997 C   0  0  0  0  0  0  0  0  0  0  0  0
  -13.1867   14.5663  -24.0956 C   0  0  0  0  0  0  0  0  0  0  0  0
  -12.7845   13.7655  -25.3414 C   0  0  0  0  0  0  0  0  0  0  0  0
  -12.7466   12.3641  -24.7154 C   0  0  0  0  0  0  0  0  0  0  0  0
  -11.9955   12.6319  -23.5721 O   0  0  0  0  0  0  0  0  0  0  0  0
  -12.1084   11.4125  -25.5890 N   0  0  0  0  0  0  0  0  0  0  0  0
  -12.0818   11.5275  -26.9211 C   0  0  0  0  0  0  0  0  0  0  0  0
  -11.4158   10.4854  -27.4205 N   0  0  0  0  0  0  0  0  0  0  0  0
  -11.0202    9.7127  -26.4293 C   0  0  0  0  0  0  0  0  0  0  0  0
  -11.4564   10.2951  -25.2627 C   0  0  0  0  0  0  0  0  0  0  0  0
  -11.1993    9.7264  -24.0598 N   0  0  0  0  0  0  0  0  0  0  0  0
  -10.5086    8.5727  -23.9652 C   0  0  0  0  0  0  0  0  0  0  0  0
  -10.0662    7.9744  -25.0848 N   0  0  0  0  0  0  0  0  0  0  0  0
  -10.3045    8.5143  -26.3074 C   0  0  0  0  0  0  0  0  0  0  0  0
   -9.8495    7.9034  -27.4962 N   0  0  0  0  0  0  0  0  0  0  0  0
  -11.4842   14.0619  -25.7105 O   0  0  0  0  0  0  0  0  0  0  0  0
  -12.7111   15.8548  -24.1313 O   0  0  0  0  0  0  0  0  0  0  0  0
  -10.5929   14.3661  -22.5611 H   0  0  0  0  0  0  0  0  0  0  0  0
  -11.9431   15.5694  -22.1901 H   0  0  0  0  0  0  0  0  0  0  0  0
  -13.4009   13.4037  -22.2855 H   0  0  0  0  0  0  0  0  0  0  0  0
  -14.3069   14.5247  -24.0794 H   0  0  0  0  0  0  0  0  0  0  0  0
  -13.5168   13.8429  -26.1414 H   0  0  0  0  0  0  0  0  0  0  0  0
  -13.7811   12.1145  -24.4682 H   0  0  0  0  0  0  0  0  0  0  0  0
  -12.5239   12.3316  -27.5318 H   0  0  0  0  0  0  0  0  0  0  0  0
  -10.3365    8.1688  -22.9654 H   0  0  0  0  0  0  0  0  0  0  0  0
   -8.9610    8.2028  -27.9267 H   0  0  0  0  0  0  0  0  0  0  0  0
  -10.4019    7.1538  -27.9427 H   0  0  0  0  0  0  0  0  0  0  0  0
  -11.0748   14.7498  -25.0997 H   0  0  0  0  0  0  0  0  0  0  0  0
  -13.4087   16.4083  -24.6070 H   0  0  0  0  0  0  0  0  0  0  0  0
  1  2  1  0
  2  3  1  0
  3  4  1  0
  4  5  1  0
  5  6  1  0
  5  7  1  0
  7  8  1  0
  8  9  2  0
  9 10  1  0
 10 11  2  0
 11 12  1  0
 12 13  2  0
 13 14  1  0
 14 15  2  0
 15 16  1  0
  4 17  1  0
  3 18  1  0
  6  2  1  0
 11  7  1  0
 15 10  1  0
  1 19  1  0
  1 20  1  0
  2 21  1  0
  3 22  1  0
  4 23  1  0
  5 24  1  0
  8 25  1  0
 13 26  1  0
 16 27  1  0
 16 28  1  0
 17 29  1  0
 18 30  1  0
M  RAD  1   1   2
M  END
$$$$

     RDKit          3D

 30 32  0  0  0  0  0  0  0  0999 V2000
  -12.0633   13.7959  -21.6152 C   0  0  0  0  0  3  0  0  0  0  0  0
  -12.5582   13.6098  -23.0293 C   0  0  0  0  0  0  0  0  0  0  0  0
  -12.0488   14.7010  -23.9365 C   0  0  0  0  0  0  0  0  0  0  0  0
  -11.9142   13.9943  -25.2691 C   0  0  0  0  0  0  0  0  0  0  0  0
  -12.4489   12.6238  -24.9464 C   0  0  0  0  0  0  0  0  0  0  0  0
  -12.0165   12.4648  -23.6195 O   0  0  0  0  0  0  0  0  0  0  0  0
  -11.8861   11.5947  -25.7946 N   0  0  0  0  0  0  0  0  0  0  0  0
  -11.7019   11.6304  -27.1266 C   0  0  0  0  0  0  0  0  0  0  0  0
  -11.1483   10.4456  -27.4726 N   0  0  0  0  0  0  0  0  0  0  0  0
  -10.9812    9.6681  -26.3895 C   0  0  0  0  0  0  0  0  0  0  0  0
  -11.4545   10.4091  -25.3239 C   0  0  0  0  0  0  0  0  0  0  0  0
  -11.3932    9.8328  -24.1029 N   0  0  0  0  0  0  0  0  0  0  0  0
  -10.8981    8.5976  -23.9156 C   0  0  0  0  0  0  0  0  0  0  0  0
  -10.4461    7.9050  -24.9756 N   0  0  0  0  0  0  0  0  0  0  0  0
  -10.4645    8.3877  -26.2184 C   0  0  0  0  0  0  0  0  0  0  0  0
   -9.9779    7.6236  -27.3074 N   0  0  0  0  0  0  0  0  0  0  0  0
  -12.7377   14.6245  -26.1996 O   0  0  0  0  0  0  0  0  0  0  0  0
  -12.9878   15.6993  -24.0134 O   0  0  0  0  0  0  0  0  0  0  0  0
  -12.6989   13.2759  -20.8762 H   0  0  0  0  0  0  0  0  0  0  0  0
  -10.9888   13.5548  -21.5058 H   0  0  0  0  0  0  0  0  0  0  0  0
  -13.6440   13.5111  -23.0225 H   0  0  0  0  0  0  0  0  0  0  0  0
  -11.0705   15.0357  -23.5396 H   0  0  0  0  0  0  0  0  0  0  0  0
  -10.8552   13.9667  -25.6194 H   0  0  0  0  0  0  0  0  0  0  0  0
  -13.5469   12.6596  -24.9924 H   0  0  0  0  0  0  0  0  0  0  0  0
  -11.9506   12.4535  -27.7936 H   0  0  0  0  0  0  0  0  0  0  0  0
  -10.8813    8.2035  -22.9125 H   0  0  0  0  0  0  0  0  0  0  0  0
  -10.4520    6.7703  -27.6220 H   0  0  0  0  0  0  0  0  0  0  0  0
   -9.1193    7.9377  -27.7980 H   0  0  0  0  0  0  0  0  0  0  0  0
  -12.2867   14.8731  -27.0227 H   0  0  0  0  0  0  0  0  0  0  0  0
  -12.8078   16.4288  -23.3690 H   0  0  0  0  0  0  0  0  0  0  0  0
  1  2  1  0
  2  3  1  0
  3  4  1  0
  4  5  1  0
  5  6  1  0
  5  7  1  0
  7  8  1  0
  8  9  2  0
  9 10  1  0
 10 11  2  0
 11 12  1  0
 12 13  2  0
 13 14  1  0
 14 15  2  0
 15 16  1  0
  4 17  1  0
  3 18  1  0
  6  2  1  0
 11  7  1  0
 15 10  1  0
  1 19  1  0
  1 20  1  0
  2 21  1  0
  3 22  1  0
  4 23  1  0
  5 24  1  0
  8 25  1  0
 13 26  1  0
 16 27  1  0
 16 28  1  0
 17 29  1  0
 18 30  1  0
M  RAD  1   1   2
M  END
$$$$

     RDKit          3D

 30 32  0  0  0  0  0  0  0  0999 V2000
  -13.0693   13.5358  -22.0399 C   0  0  0  0  0  3  0  0  0  0  0  0
  -11.8328   13.7514  -22.9101 C   0  0  0  0  0  0  0  0  0  0  0  0
  -12.0320   14.8382  -23.9163 C   0  0  0  0  0  0  0  0  0  0  0  0
  -11.7907   14.0921  -25.2341 C   0  0  0  0  0  0  0  0  0  0  0  0
  -12.2497   12.7058  -24.8374 C   0  0  0  0  0  0  0  0  0  0  0  0
  -11.6175   12.5658  -23.5927 O   0  0  0  0  0  0  0  0  0  0  0  0
  -11.7961   11.6798  -25.7207 N   0  0  0  0  0  0  0  0  0  0  0  0
  -11.6382   11.6460  -27.0534 C   0  0  0  0  0  0  0  0  0  0  0  0
  -11.1781   10.4511  -27.4606 N   0  0  0  0  0  0  0  0  0  0  0  0
  -11.0298    9.6871  -26.3902 C   0  0  0  0  0  0  0  0  0  0  0  0
  -11.4128   10.4434  -25.2956 C   0  0  0  0  0  0  0  0  0  0  0  0
  -11.3438    9.8644  -24.0894 N   0  0  0  0  0  0  0  0  0  0  0  0
  -10.9223    8.5987  -23.9200 C   0  0  0  0  0  0  0  0  0  0  0  0
  -10.5568    7.8888  -25.0023 N   0  0  0  0  0  0  0  0  0  0  0  0
  -10.5924    8.3854  -26.2522 C   0  0  0  0  0  0  0  0  0  0  0  0
  -10.1888    7.5682  -27.3418 N   0  0  0  0  0  0  0  0  0  0  0  0
  -12.5051   14.6292  -26.2747 O   0  0  0  0  0  0  0  0  0  0  0  0
  -13.3707   15.2767  -23.9246 O   0  0  0  0  0  0  0  0  0  0  0  0
  -13.5195   14.4757  -21.7088 H   0  0  0  0  0  0  0  0  0  0  0  0
  -12.7140   12.9020  -21.1837 H   0  0  0  0  0  0  0  0  0  0  0  0
  -10.9905   14.0391  -22.2516 H   0  0  0  0  0  0  0  0  0  0  0  0
  -11.3234   15.6839  -23.8040 H   0  0  0  0  0  0  0  0  0  0  0  0
  -10.6954   14.1063  -25.4491 H   0  0  0  0  0  0  0  0  0  0  0  0
  -13.3577   12.7575  -24.7338 H   0  0  0  0  0  0  0  0  0  0  0  0
  -11.8541   12.4737  -27.7085 H   0  0  0  0  0  0  0  0  0  0  0  0
  -10.8681    8.1304  -22.9306 H   0  0  0  0  0  0  0  0  0  0  0  0
  -10.8969    6.9608  -27.8074 H   0  0  0  0  0  0  0  0  0  0  0  0
   -9.2135    7.5474  -27.6992 H   0  0  0  0  0  0  0  0  0  0  0  0
  -11.9190   14.9978  -27.0088 H   0  0  0  0  0  0  0  0  0  0  0  0
  -13.9426   14.5058  -23.7158 H   0  0  0  0  0  0  0  0  0  0  0  0
  1  2  1  0
  2  3  1  0
  3  4  1  0
  4  5  1  0
  5  6  1  0
  5  7  1  0
  7  8  1  0
  8  9  2  0
  9 10  1  0
 10 11  2  0
 11 12  1  0
 12 13  2  0
 13 14  1  0
 14 15  2  0
 15 16  1  0
  4 17  1  0
  3 18  1  0
  6  2  1  0
 11  7  1  0
 15 10  1  0
  1 19  1  0
  1 20  1  0
  2 21  1  0
  3 22  1  0
  4 23  1  0
  5 24  1  0
  8 25  1  0
 13 26  1  0
 16 27  1  0
 16 28  1  0
 17 29  1  0
 18 30  1  0
M  RAD  1   1   2
M  END
$$$$

     RDKit          3D

 30 32  0  0  0  0  0  0  0  0999 V2000
  -14.4076   14.6328  -23.2268 C   0  0  0  0  0  3  0  0  0  0  0  0
  -13.0521   13.9776  -23.3445 C   0  0  0  0  0  0  0  0  0  0  0  0
  -12.1217   14.7707  -24.2601 C   0  0  0  0  0  0  0  0  0  0  0  0
  -11.3686   13.5826  -24.8917 C   0  0  0  0  0  0  0  0  0  0  0  0
  -12.5797   12.6865  -25.0782 C   0  0  0  0  0  0  0  0  0  0  0  0
  -13.1045   12.6865  -23.7978 O   0  0  0  0  0  0  0  0  0  0  0  0
  -12.3192   11.4203  -25.6430 N   0  0  0  0  0  0  0  0  0  0  0  0
  -13.1493   10.7687  -26.4896 C   0  0  0  0  0  0  0  0  0  0  0  0
  -12.6260    9.5851  -26.8575 N   0  0  0  0  0  0  0  0  0  0  0  0
  -11.4502    9.4335  -26.2660 C   0  0  0  0  0  0  0  0  0  0  0  0
  -11.2662   10.5952  -25.5030 C   0  0  0  0  0  0  0  0  0  0  0  0
  -10.1474   10.6795  -24.8108 N   0  0  0  0  0  0  0  0  0  0  0  0
   -9.2038    9.7368  -24.8003 C   0  0  0  0  0  0  0  0  0  0  0  0
   -9.3959    8.6270  -25.5386 N   0  0  0  0  0  0  0  0  0  0  0  0
  -10.4960    8.4397  -26.2782 C   0  0  0  0  0  0  0  0  0  0  0  0
  -10.6447    7.2550  -27.0338 N   0  0  0  0  0  0  0  0  0  0  0  0
  -10.5287   13.1448  -23.8703 O   0  0  0  0  0  0  0  0  0  0  0  0
  -11.2656   15.5854  -23.5658 O   0  0  0  0  0  0  0  0  0  0  0  0
  -14.4184   15.3897  -22.4086 H   0  0  0  0  0  0  0  0  0  0  0  0
  -14.7378   15.0631  -24.2021 H   0  0  0  0  0  0  0  0  0  0  0  0
  -12.5823   14.0425  -22.3274 H   0  0  0  0  0  0  0  0  0  0  0  0
  -12.6630   15.2555  -25.0839 H   0  0  0  0  0  0  0  0  0  0  0  0
  -10.8675   13.8510  -25.8103 H   0  0  0  0  0  0  0  0  0  0  0  0
  -13.2956   13.3105  -25.6942 H   0  0  0  0  0  0  0  0  0  0  0  0
  -14.1192   11.1002  -26.8608 H   0  0  0  0  0  0  0  0  0  0  0  0
   -8.2824    9.8572  -24.2014 H   0  0  0  0  0  0  0  0  0  0  0  0
  -10.3055    7.2035  -28.0287 H   0  0  0  0  0  0  0  0  0  0  0  0
  -11.0950    6.3859  -26.6383 H   0  0  0  0  0  0  0  0  0  0  0  0
  -11.1338   12.7699  -23.1623 H   0  0  0  0  0  0  0  0  0  0  0  0
  -10.5315   15.8454  -24.1802 H   0  0  0  0  0  0  0  0  0  0  0  0
  1  2  1  0
  2  3  1  0
  3  4  1  0
  4  5  1  0
  5  6  1  0
  5  7  1  0
  7  8  1  0
  8  9  2  0
  9 10  1  0
 10 11  2  0
 11 12  1  0
 12 13  2  0
 13 14  1  0
 14 15  2  0
 15 16  1  0
  4 17  1  0
  3 18  1  0
  6  2  1  0
 11  7  1  0
 15 10  1  0
  1 19  1  0
  1 20  1  0
  2 21  1  0
  3 22  1  0
  4 23  1  0
  5 24  1  0
  8 25  1  0
 13 26  1  0
 16 27  1  0
 16 28  1  0
 17 29  1  0
 18 30  1  0
M  RAD  1   1   2
M  END
$$$$

     RDKit          3D

 30 32  0  0  0  0  0  0  0  0999 V2000
  -14.4271   12.9249  -23.6441 C   0  0  0  0  0  3  0  0  0  0  0  0
  -13.0504   13.5237  -23.3621 C   0  0  0  0  0  0  0  0  0  0  0  0
  -12.7439   14.6744  -24.2667 C   0  0  0  0  0  0  0  0  0  0  0  0
  -11.6677   14.1264  -25.1732 C   0  0  0  0  0  0  0  0  0  0  0  0
  -11.3310   12.8061  -24.5994 C   0  0  0  0  0  0  0  0  0  0  0  0
  -12.0480   12.6023  -23.4522 O   0  0  0  0  0  0  0  0  0  0  0  0
  -11.5441   11.6908  -25.5028 N   0  0  0  0  0  0  0  0  0  0  0  0
  -12.2381   11.6379  -26.6503 C   0  0  0  0  0  0  0  0  0  0  0  0
  -12.1445   10.3854  -27.1270 N   0  0  0  0  0  0  0  0  0  0  0  0
  -11.3933    9.6388  -26.2881 C   0  0  0  0  0  0  0  0  0  0  0  0
  -11.0206   10.4720  -25.2685 C   0  0  0  0  0  0  0  0  0  0  0  0
  -10.2419    9.9754  -24.2596 N   0  0  0  0  0  0  0  0  0  0  0  0
   -9.8458    8.6921  -24.2633 C   0  0  0  0  0  0  0  0  0  0  0  0
  -10.2065    7.8687  -25.2587 N   0  0  0  0  0  0  0  0  0  0  0  0
  -10.9720    8.3365  -26.2606 C   0  0  0  0  0  0  0  0  0  0  0  0
  -11.3536    7.4799  -27.3064 N   0  0  0  0  0  0  0  0  0  0  0  0
  -10.5776   15.0205  -25.0618 O   0  0  0  0  0  0  0  0  0  0  0  0
  -12.3211   15.7520  -23.5111 O   0  0  0  0  0  0  0  0  0  0  0  0
  -14.3659   11.8433  -23.3444 H   0  0  0  0  0  0  0  0  0  0  0  0
  -15.1851   13.4666  -23.0347 H   0  0  0  0  0  0  0  0  0  0  0  0
  -13.0937   13.8747  -22.2978 H   0  0  0  0  0  0  0  0  0  0  0  0
  -13.6482   14.9876  -24.8259 H   0  0  0  0  0  0  0  0  0  0  0  0
  -11.9452   14.1315  -26.2380 H   0  0  0  0  0  0  0  0  0  0  0  0
  -10.2384   12.7953  -24.3293 H   0  0  0  0  0  0  0  0  0  0  0  0
  -12.7792   12.4819  -27.1011 H   0  0  0  0  0  0  0  0  0  0  0  0
   -9.2210    8.2875  -23.4570 H   0  0  0  0  0  0  0  0  0  0  0  0
  -12.3596    7.2986  -27.4714 H   0  0  0  0  0  0  0  0  0  0  0  0
  -10.6455    7.0295  -27.9115 H   0  0  0  0  0  0  0  0  0  0  0  0
   -9.8555   14.5499  -24.6106 H   0  0  0  0  0  0  0  0  0  0  0  0
  -11.5713   15.4251  -22.9433 H   0  0  0  0  0  0  0  0  0  0  0  0
  1  2  1  0
  2  3  1  0
  3  4  1  0
  4  5  1  0
  5  6  1  0
  5  7  1  0
  7  8  1  0
  8  9  2  0
  9 10  1  0
 10 11  2  0
 11 12  1  0
 12 13  2  0
 13 14  1  0
 14 15  2  0
 15 16  1  0
  4 17  1  0
  3 18  1  0
  6  2  1  0
 11  7  1  0
 15 10  1  0
  1 19  1  0
  1 20  1  0
  2 21  1  0
  3 22  1  0
  4 23  1  0
  5 24  1  0
  8 25  1  0
 13 26  1  0
 16 27  1  0
 16 28  1  0
 17 29  1  0
 18 30  1  0
M  RAD  1   1   2
M  END
$$$$

     RDKit          3D

 30 32  0  0  0  0  0  0  0  0999 V2000
  -11.3179   14.5956  -22.2642 C   0  0  0  0  0  3  0  0  0  0  0  0
  -11.5204   14.4486  -23.7605 C   0  0  0  0  0  0  0  0  0  0  0  0
  -12.9522   14.6198  -24.1637 C   0  0  0  0  0  0  0  0  0  0  0  0
  -13.1836   13.3798  -25.0306 C   0  0  0  0  0  0  0  0  0  0  0  0
  -11.7574   13.0949  -25.4338 C   0  0  0  0  0  0  0  0  0  0  0  0
  -11.0905   13.2195  -24.2182 O   0  0  0  0  0  0  0  0  0  0  0  0
  -11.5871   11.7936  -26.0177 N   0  0  0  0  0  0  0  0  0  0  0  0
  -11.9023   11.4838  -27.2793 C   0  0  0  0  0  0  0  0  0  0  0  0
  -11.6279   10.1857  -27.5322 N   0  0  0  0  0  0  0  0  0  0  0  0
  -11.1307    9.6505  -26.4244 C   0  0  0  0  0  0  0  0  0  0  0  0
  -11.1041   10.6624  -25.4684 C   0  0  0  0  0  0  0  0  0  0  0  0
  -10.6424   10.4084  -24.2303 N   0  0  0  0  0  0  0  0  0  0  0  0
  -10.2147    9.1630  -23.9541 C   0  0  0  0  0  0  0  0  0  0  0  0
  -10.2372    8.1773  -24.8748 N   0  0  0  0  0  0  0  0  0  0  0  0
  -10.6870    8.3688  -26.1290 C   0  0  0  0  0  0  0  0  0  0  0  0
  -10.7168    7.3414  -27.1086 N   0  0  0  0  0  0  0  0  0  0  0  0
  -13.6248   12.3190  -24.2496 O   0  0  0  0  0  0  0  0  0  0  0  0
  -13.8301   14.6960  -23.1165 O   0  0  0  0  0  0  0  0  0  0  0  0
  -10.2239   14.4895  -22.0815 H   0  0  0  0  0  0  0  0  0  0  0  0
  -11.6500   15.6073  -21.9820 H   0  0  0  0  0  0  0  0  0  0  0  0
  -10.8828   15.2192  -24.2518 H   0  0  0  0  0  0  0  0  0  0  0  0
  -13.0321   15.4876  -24.8795 H   0  0  0  0  0  0  0  0  0  0  0  0
  -13.8422   13.5946  -25.8767 H   0  0  0  0  0  0  0  0  0  0  0  0
  -11.4150   13.9249  -26.0743 H   0  0  0  0  0  0  0  0  0  0  0  0
  -12.3220   12.1390  -28.0391 H   0  0  0  0  0  0  0  0  0  0  0  0
   -9.8402    8.9737  -22.9356 H   0  0  0  0  0  0  0  0  0  0  0  0
   -9.9612    6.6260  -27.1214 H   0  0  0  0  0  0  0  0  0  0  0  0
  -11.4545    7.2431  -27.8358 H   0  0  0  0  0  0  0  0  0  0  0  0
  -14.3161   12.6104  -23.5807 H   0  0  0  0  0  0  0  0  0  0  0  0
  -13.3500   14.4524  -22.2847 H   0  0  0  0  0  0  0  0  0  0  0  0
  1  2  1  0
  2  3  1  0
  3  4  1  0
  4  5  1  0
  5  6  1  0
  5  7  1  0
  7  8  1  0
  8  9  2  0
  9 10  1  0
 10 11  2  0
 11 12  1  0
 12 13  2  0
 13 14  1  0
 14 15  2  0
 15 16  1  0
  4 17  1  0
  3 18  1  0
  6  2  1  0
 11  7  1  0
 15 10  1  0
  1 19  1  0
  1 20  1  0
  2 21  1  0
  3 22  1  0
  4 23  1  0
  5 24  1  0
  8 25  1  0
 13 26  1  0
 16 27  1  0
 16 28  1  0
 17 29  1  0
 18 30  1  0
M  RAD  1   1   2
M  END
$$$$

     RDKit          3D

 30 32  0  0  0  0  0  0  0  0999 V2000
  -14.3525   14.9622  -23.6352 C   0  0  0  0  0  3  0  0  0  0  0  0
  -13.1919   14.5640  -24.4776 C   0  0  0  0  0  0  0  0  0  0  0  0
  -11.8734   14.5851  -23.7876 C   0  0  0  0  0  0  0  0  0  0  0  0
  -11.1429   13.4234  -24.4475 C   0  0  0  0  0  0  0  0  0  0  0  0
  -12.1458   12.9737  -25.4839 C   0  0  0  0  0  0  0  0  0  0  0  0
  -13.3537   13.2165  -24.8303 O   0  0  0  0  0  0  0  0  0  0  0  0
  -12.0905   11.5477  -25.7330 N   0  0  0  0  0  0  0  0  0  0  0  0
  -13.1703   10.8182  -26.0702 C   0  0  0  0  0  0  0  0  0  0  0  0
  -12.7969    9.5412  -26.2325 N   0  0  0  0  0  0  0  0  0  0  0  0
  -11.4797    9.4732  -25.9960 C   0  0  0  0  0  0  0  0  0  0  0  0
  -11.0303   10.7310  -25.6816 C   0  0  0  0  0  0  0  0  0  0  0  0
   -9.7368   10.9237  -25.4022 N   0  0  0  0  0  0  0  0  0  0  0  0
   -8.8739    9.8720  -25.4311 C   0  0  0  0  0  0  0  0  0  0  0  0
   -9.3226    8.6443  -25.7398 N   0  0  0  0  0  0  0  0  0  0  0  0
  -10.6271    8.3951  -26.0316 C   0  0  0  0  0  0  0  0  0  0  0  0
  -11.0938    7.0994  -26.3562 N   0  0  0  0  0  0  0  0  0  0  0  0
  -10.8744   12.4353  -23.5101 O   0  0  0  0  0  0  0  0  0  0  0  0
  -11.9703   14.4022  -22.4094 O   0  0  0  0  0  0  0  0  0  0  0  0
  -14.1420   15.7938  -22.9363 H   0  0  0  0  0  0  0  0  0  0  0  0
  -15.2128   15.1859  -24.3032 H   0  0  0  0  0  0  0  0  0  0  0  0
  -13.0989   15.1291  -25.4235 H   0  0  0  0  0  0  0  0  0  0  0  0
  -11.3005   15.5266  -23.9362 H   0  0  0  0  0  0  0  0  0  0  0  0
  -10.2413   13.7774  -24.9515 H   0  0  0  0  0  0  0  0  0  0  0  0
  -12.0481   13.5185  -26.4334 H   0  0  0  0  0  0  0  0  0  0  0  0
  -14.2068   11.1494  -26.2057 H   0  0  0  0  0  0  0  0  0  0  0  0
   -7.8233   10.0048  -25.2084 H   0  0  0  0  0  0  0  0  0  0  0  0
  -10.9255    6.7354  -27.3206 H   0  0  0  0  0  0  0  0  0  0  0  0
  -11.5981    6.4903  -25.6779 H   0  0  0  0  0  0  0  0  0  0  0  0
  -10.6983   12.9036  -22.6526 H   0  0  0  0  0  0  0  0  0  0  0  0
  -12.6693   13.7415  -22.1687 H   0  0  0  0  0  0  0  0  0  0  0  0
  1  2  1  0
  2  3  1  0
  3  4  1  0
  4  5  1  0
  5  6  1  0
  5  7  1  0
  7  8  1  0
  8  9  2  0
  9 10  1  0
 10 11  2  0
 11 12  1  0
 12 13  2  0
 13 14  1  0
 14 15  2  0
 15 16  1  0
  4 17  1  0
  3 18  1  0
  6  2  1  0
 11  7  1  0
 15 10  1  0
  1 19  1  0
  1 20  1  0
  2 21  1  0
  3 22  1  0
  4 23  1  0
  5 24  1  0
  8 25  1  0
 13 26  1  0
 16 27  1  0
 16 28  1  0
 17 29  1  0
 18 30  1  0
M  RAD  1   1   2
M  END
$$$$

     RDKit          3D

 30 32  0  0  0  0  0  0  0  0999 V2000
  -14.0872   14.2241  -22.4094 C   0  0  0  0  0  3  0  0  0  0  0  0
  -12.7777   13.7683  -22.9882 C   0  0  0  0  0  0  0  0  0  0  0  0
  -12.2642   14.8316  -23.9432 C   0  0  0  0  0  0  0  0  0  0  0  0
  -11.8013   13.9919  -25.1160 C   0  0  0  0  0  0  0  0  0  0  0  0
  -11.6941   12.6294  -24.4647 C   0  0  0  0  0  0  0  0  0  0  0  0
  -12.9158   12.6044  -23.7550 O   0  0  0  0  0  0  0  0  0  0  0  0
  -11.5875   11.5676  -25.4098 N   0  0  0  0  0  0  0  0  0  0  0  0
  -11.9931   11.6010  -26.6913 C   0  0  0  0  0  0  0  0  0  0  0  0
  -11.7323   10.4169  -27.2823 N   0  0  0  0  0  0  0  0  0  0  0  0
  -11.1523    9.6014  -26.3841 C   0  0  0  0  0  0  0  0  0  0  0  0
  -11.0698   10.3418  -25.2138 C   0  0  0  0  0  0  0  0  0  0  0  0
  -10.5137    9.7375  -24.1365 N   0  0  0  0  0  0  0  0  0  0  0  0
  -10.0486    8.4826  -24.1477 C   0  0  0  0  0  0  0  0  0  0  0  0
  -10.1414    7.7875  -25.2962 N   0  0  0  0  0  0  0  0  0  0  0  0
  -10.6765    8.3022  -26.4141 C   0  0  0  0  0  0  0  0  0  0  0  0
  -10.7811    7.5808  -27.6332 N   0  0  0  0  0  0  0  0  0  0  0  0
  -10.6166   14.4266  -25.6628 O   0  0  0  0  0  0  0  0  0  0  0  0
  -13.2736   15.7125  -24.3074 O   0  0  0  0  0  0  0  0  0  0  0  0
  -13.8581   14.8717  -21.5313 H   0  0  0  0  0  0  0  0  0  0  0  0
  -14.5988   14.8660  -23.1508 H   0  0  0  0  0  0  0  0  0  0  0  0
  -12.0072   13.5659  -22.2400 H   0  0  0  0  0  0  0  0  0  0  0  0
  -11.4285   15.4142  -23.5027 H   0  0  0  0  0  0  0  0  0  0  0  0
  -12.6413   13.9528  -25.8297 H   0  0  0  0  0  0  0  0  0  0  0  0
  -10.9053   12.6111  -23.6772 H   0  0  0  0  0  0  0  0  0  0  0  0
  -12.4609   12.4221  -27.2169 H   0  0  0  0  0  0  0  0  0  0  0  0
   -9.6034    8.0131  -23.2677 H   0  0  0  0  0  0  0  0  0  0  0  0
  -10.2314    7.8227  -28.4947 H   0  0  0  0  0  0  0  0  0  0  0  0
  -11.4259    6.7634  -27.7153 H   0  0  0  0  0  0  0  0  0  0  0  0
  -10.8071   14.7203  -26.5924 H   0  0  0  0  0  0  0  0  0  0  0  0
  -13.1745   15.8927  -25.2858 H   0  0  0  0  0  0  0  0  0  0  0  0
  1  2  1  0
  2  3  1  0
  3  4  1  0
  4  5  1  0
  5  6  1  0
  5  7  1  0
  7  8  1  0
  8  9  2  0
  9 10  1  0
 10 11  2  0
 11 12  1  0
 12 13  2  0
 13 14  1  0
 14 15  2  0
 15 16  1  0
  4 17  1  0
  3 18  1  0
  6  2  1  0
 11  7  1  0
 15 10  1  0
  1 19  1  0
  1 20  1  0
  2 21  1  0
  3 22  1  0
  4 23  1  0
  5 24  1  0
  8 25  1  0
 13 26  1  0
 16 27  1  0
 16 28  1  0
 17 29  1  0
 18 30  1  0
M  RAD  1   1   2
M  END
$$$$

     RDKit          3D

 30 32  0  0  0  0  0  0  0  0999 V2000
  -13.4889   15.7605  -25.3420 C   0  0  0  0  0  3  0  0  0  0  0  0
  -13.0222   14.4259  -24.8247 C   0  0  0  0  0  0  0  0  0  0  0  0
  -12.2955   14.5972  -23.5054 C   0  0  0  0  0  0  0  0  0  0  0  0
  -11.6437   13.2099  -23.4030 C   0  0  0  0  0  0  0  0  0  0  0  0
  -11.3793   12.9257  -24.8576 C   0  0  0  0  0  0  0  0  0  0  0  0
  -12.0789   13.8308  -25.6179 O   0  0  0  0  0  0  0  0  0  0  0  0
  -11.6470   11.5413  -25.2134 N   0  0  0  0  0  0  0  0  0  0  0  0
  -12.8582   10.9622  -25.2453 C   0  0  0  0  0  0  0  0  0  0  0  0
  -12.7430    9.6682  -25.6169 N   0  0  0  0  0  0  0  0  0  0  0  0
  -11.4488    9.3980  -25.8297 C   0  0  0  0  0  0  0  0  0  0  0  0
  -10.7767   10.5776  -25.5737 C   0  0  0  0  0  0  0  0  0  0  0  0
   -9.4478   10.5702  -25.7172 N   0  0  0  0  0  0  0  0  0  0  0  0
   -8.7989    9.4551  -26.0959 C   0  0  0  0  0  0  0  0  0  0  0  0
   -9.4649    8.3029  -26.3450 N   0  0  0  0  0  0  0  0  0  0  0  0
  -10.8012    8.2436  -26.2192 C   0  0  0  0  0  0  0  0  0  0  0  0
  -11.4538    7.0238  -26.4884 N   0  0  0  0  0  0  0  0  0  0  0  0
  -12.5755   12.3286  -22.8954 O   0  0  0  0  0  0  0  0  0  0  0  0
  -13.2026   14.7865  -22.4653 O   0  0  0  0  0  0  0  0  0  0  0  0
  -14.3828   16.0446  -24.7257 H   0  0  0  0  0  0  0  0  0  0  0  0
  -13.8204   15.6818  -26.3753 H   0  0  0  0  0  0  0  0  0  0  0  0
  -13.9117   13.8011  -24.6119 H   0  0  0  0  0  0  0  0  0  0  0  0
  -11.5251   15.3782  -23.5609 H   0  0  0  0  0  0  0  0  0  0  0  0
  -10.7302   13.2478  -22.8092 H   0  0  0  0  0  0  0  0  0  0  0  0
  -10.2853   13.1634  -25.0182 H   0  0  0  0  0  0  0  0  0  0  0  0
  -13.7968   11.4397  -25.0128 H   0  0  0  0  0  0  0  0  0  0  0  0
   -7.7312    9.5165  -26.1925 H   0  0  0  0  0  0  0  0  0  0  0  0
  -11.2360    6.4986  -27.3477 H   0  0  0  0  0  0  0  0  0  0  0  0
  -12.1496    6.6616  -25.8204 H   0  0  0  0  0  0  0  0  0  0  0  0
  -13.4345   12.7595  -22.7271 H   0  0  0  0  0  0  0  0  0  0  0  0
  -12.8556   14.3942  -21.6478 H   0  0  0  0  0  0  0  0  0  0  0  0
  1  2  1  0
  2  3  1  0
  3  4  1  0
  4  5  1  0
  5  6  1  0
  5  7  1  0
  7  8  1  0
  8  9  2  0
  9 10  1  0
 10 11  2  0
 11 12  1  0
 12 13  2  0
 13 14  1  0
 14 15  2  0
 15 16  1  0
  4 17  1  0
  3 18  1  0
  6  2  1  0
 11  7  1  0
 15 10  1  0
  1 19  1  0
  1 20  1  0
  2 21  1  0
  3 22  1  0
  4 23  1  0
  5 24  1  0
  8 25  1  0
 13 26  1  0
 16 27  1  0
 16 28  1  0
 17 29  1  0
 18 30  1  0
M  RAD  1   1   2
M  END
$$$$

     RDKit          3D

 30 32  0  0  0  0  0  0  0  0999 V2000
  -11.3064   14.7252  -22.4622 C   0  0  0  0  0  3  0  0  0  0  0  0
  -12.3973   13.8045  -22.9745 C   0  0  0  0  0  0  0  0  0  0  0  0
  -13.2590   14.4793  -23.9917 C   0  0  0  0  0  0  0  0  0  0  0  0
  -12.9240   13.6598  -25.2442 C   0  0  0  0  0  0  0  0  0  0  0  0
  -12.7029   12.3061  -24.5929 C   0  0  0  0  0  0  0  0  0  0  0  0
  -11.8782   12.6536  -23.5375 O   0  0  0  0  0  0  0  0  0  0  0  0
  -12.0867   11.4176  -25.5272 N   0  0  0  0  0  0  0  0  0  0  0  0
  -12.0276   11.5570  -26.8618 C   0  0  0  0  0  0  0  0  0  0  0  0
  -11.3651   10.5169  -27.3967 N   0  0  0  0  0  0  0  0  0  0  0  0
  -10.9803    9.6803  -26.4185 C   0  0  0  0  0  0  0  0  0  0  0  0
  -11.4402   10.2597  -25.2577 C   0  0  0  0  0  0  0  0  0  0  0  0
  -11.2421    9.6981  -24.0289 N   0  0  0  0  0  0  0  0  0  0  0  0
  -10.5648    8.5375  -24.0366 C   0  0  0  0  0  0  0  0  0  0  0  0
  -10.1033    7.9466  -25.1497 N   0  0  0  0  0  0  0  0  0  0  0  0
  -10.2992    8.5000  -26.3538 C   0  0  0  0  0  0  0  0  0  0  0  0
   -9.8290    7.9106  -27.5575 N   0  0  0  0  0  0  0  0  0  0  0  0
  -11.7067   14.1384  -25.7048 O   0  0  0  0  0  0  0  0  0  0  0  0
  -13.0142   15.8167  -24.1597 O   0  0  0  0  0  0  0  0  0  0  0  0
  -11.5549   15.1775  -21.4860 H   0  0  0  0  0  0  0  0  0  0  0  0
  -11.1041   15.4735  -23.2471 H   0  0  0  0  0  0  0  0  0  0  0  0
  -12.9747   13.4802  -22.0672 H   0  0  0  0  0  0  0  0  0  0  0  0
  -14.3352   14.2633  -23.7565 H   0  0  0  0  0  0  0  0  0  0  0  0
  -13.7215   13.6679  -25.9741 H   0  0  0  0  0  0  0  0  0  0  0  0
  -13.6561   11.9295  -24.1679 H   0  0  0  0  0  0  0  0  0  0  0  0
  -12.4495   12.3832  -27.4291 H   0  0  0  0  0  0  0  0  0  0  0  0
  -10.3484    7.9975  -23.1019 H   0  0  0  0  0  0  0  0  0  0  0  0
  -10.2798    7.0348  -27.8782 H   0  0  0  0  0  0  0  0  0  0  0  0
   -9.0633    8.3134  -28.1231 H   0  0  0  0  0  0  0  0  0  0  0  0
  -10.9800   13.8336  -25.1049 H   0  0  0  0  0  0  0  0  0  0  0  0
  -13.8665   16.3564  -24.1811 H   0  0  0  0  0  0  0  0  0  0  0  0
  1  2  1  0
  2  3  1  0
  3  4  1  0
  4  5  1  0
  5  6  1  0
  5  7  1  0
  7  8  1  0
  8  9  2  0
  9 10  1  0
 10 11  2  0
 11 12  1  0
 12 13  2  0
 13 14  1  0
 14 15  2  0
 15 16  1  0
  4 17  1  0
  3 18  1  0
  6  2  1  0
 11  7  1  0
 15 10  1  0
  1 19  1  0
  1 20  1  0
  2 21  1  0
  3 22  1  0
  4 23  1  0
  5 24  1  0
  8 25  1  0
 13 26  1  0
 16 27  1  0
 16 28  1  0
 17 29  1  0
 18 30  1  0
M  RAD  1   1   2
M  END
$$$$

     RDKit          3D

 30 32  0  0  0  0  0  0  0  0999 V2000
  -11.7665   14.1689  -21.9039 C   0  0  0  0  0  3  0  0  0  0  0  0
  -12.6912   13.6395  -22.9722 C   0  0  0  0  0  0  0  0  0  0  0  0
  -12.9083   14.6148  -24.0882 C   0  0  0  0  0  0  0  0  0  0  0  0
  -12.5244   13.7731  -25.3080 C   0  0  0  0  0  0  0  0  0  0  0  0
  -11.4594   12.8778  -24.6613 C   0  0  0  0  0  0  0  0  0  0  0  0
  -12.1315   12.4963  -23.4982 O   0  0  0  0  0  0  0  0  0  0  0  0
  -11.1527   11.7490  -25.4929 N   0  0  0  0  0  0  0  0  0  0  0  0
  -10.7684   11.8868  -26.7941 C   0  0  0  0  0  0  0  0  0  0  0  0
  -10.5551   10.6599  -27.2989 N   0  0  0  0  0  0  0  0  0  0  0  0
  -10.7905    9.7220  -26.3593 C   0  0  0  0  0  0  0  0  0  0  0  0
  -11.1680   10.4462  -25.2245 C   0  0  0  0  0  0  0  0  0  0  0  0
  -11.4740    9.7845  -24.0966 N   0  0  0  0  0  0  0  0  0  0  0  0
  -11.4130    8.4391  -24.0751 C   0  0  0  0  0  0  0  0  0  0  0  0
  -11.0445    7.7266  -25.1819 N   0  0  0  0  0  0  0  0  0  0  0  0
  -10.7337    8.3469  -26.3189 C   0  0  0  0  0  0  0  0  0  0  0  0
  -10.3478    7.6429  -27.4852 N   0  0  0  0  0  0  0  0  0  0  0  0
  -12.0066   14.5312  -26.3227 O   0  0  0  0  0  0  0  0  0  0  0  0
  -14.1917   15.1025  -24.1740 O   0  0  0  0  0  0  0  0  0  0  0  0
  -12.0481   13.6989  -20.9347 H   0  0  0  0  0  0  0  0  0  0  0  0
  -11.7429   15.2697  -21.8550 H   0  0  0  0  0  0  0  0  0  0  0  0
  -13.6753   13.4338  -22.4801 H   0  0  0  0  0  0  0  0  0  0  0  0
  -12.1330   15.4334  -24.0576 H   0  0  0  0  0  0  0  0  0  0  0  0
  -13.3369   13.1186  -25.6275 H   0  0  0  0  0  0  0  0  0  0  0  0
  -10.5773   13.4580  -24.3445 H   0  0  0  0  0  0  0  0  0  0  0  0
  -10.6511   12.8211  -27.3399 H   0  0  0  0  0  0  0  0  0  0  0  0
  -11.6585    7.8919  -23.1670 H   0  0  0  0  0  0  0  0  0  0  0  0
  -11.0034    7.4376  -28.2703 H   0  0  0  0  0  0  0  0  0  0  0  0
   -9.3567    7.3214  -27.5457 H   0  0  0  0  0  0  0  0  0  0  0  0
  -12.6293   14.4646  -27.1118 H   0  0  0  0  0  0  0  0  0  0  0  0
  -14.1324   16.1075  -24.1215 H   0  0  0  0  0  0  0  0  0  0  0  0
  1  2  1  0
  2  3  1  0
  3  4  1  0
  4  5  1  0
  5  6  1  0
  5  7  1  0
  7  8  1  0
  8  9  2  0
  9 10  1  0
 10 11  2  0
 11 12  1  0
 12 13  2  0
 13 14  1  0
 14 15  2  0
 15 16  1  0
  4 17  1  0
  3 18  1  0
  6  2  1  0
 11  7  1  0
 15 10  1  0
  1 19  1  0
  1 20  1  0
  2 21  1  0
  3 22  1  0
  4 23  1  0
  5 24  1  0
  8 25  1  0
 13 26  1  0
 16 27  1  0
 16 28  1  0
 17 29  1  0
 18 30  1  0
M  RAD  1   1   2
M  END
$$$$

     RDKit          3D

 30 32  0  0  0  0  0  0  0  0999 V2000
  -14.0580   15.0366  -24.5089 C   0  0  0  0  0  3  0  0  0  0  0  0
  -12.6599   14.7481  -25.0010 C   0  0  0  0  0  0  0  0  0  0  0  0
  -11.6634   14.6353  -23.8863 C   0  0  0  0  0  0  0  0  0  0  0  0
  -11.2691   13.1532  -23.9660 C   0  0  0  0  0  0  0  0  0  0  0  0
  -12.4899   12.6045  -24.6672 C   0  0  0  0  0  0  0  0  0  0  0  0
  -12.6971   13.5299  -25.6640 O   0  0  0  0  0  0  0  0  0  0  0  0
  -12.3431   11.2568  -25.1184 N   0  0  0  0  0  0  0  0  0  0  0  0
  -13.3683   10.3924  -25.2350 C   0  0  0  0  0  0  0  0  0  0  0  0
  -12.8489    9.2372  -25.6826 N   0  0  0  0  0  0  0  0  0  0  0  0
  -11.5336    9.3703  -25.8434 C   0  0  0  0  0  0  0  0  0  0  0  0
  -11.2057   10.6586  -25.4843 C   0  0  0  0  0  0  0  0  0  0  0  0
   -9.9137   11.0077  -25.5728 N   0  0  0  0  0  0  0  0  0  0  0  0
   -8.9721   10.1186  -26.0010 C   0  0  0  0  0  0  0  0  0  0  0  0
   -9.2839    8.8617  -26.3526 N   0  0  0  0  0  0  0  0  0  0  0  0
  -10.5655    8.4739  -26.2780 C   0  0  0  0  0  0  0  0  0  0  0  0
  -10.8955    7.1433  -26.6501 N   0  0  0  0  0  0  0  0  0  0  0  0
  -11.0752   12.6051  -22.7198 O   0  0  0  0  0  0  0  0  0  0  0  0
  -12.2841   14.7747  -22.6248 O   0  0  0  0  0  0  0  0  0  0  0  0
  -14.0996   15.4446  -23.4983 H   0  0  0  0  0  0  0  0  0  0  0  0
  -14.7412   14.1754  -24.6624 H   0  0  0  0  0  0  0  0  0  0  0  0
  -12.3435   15.5425  -25.7015 H   0  0  0  0  0  0  0  0  0  0  0  0
  -10.8079   15.2987  -24.0091 H   0  0  0  0  0  0  0  0  0  0  0  0
  -10.3613   13.1320  -24.6010 H   0  0  0  0  0  0  0  0  0  0  0  0
  -13.3345   12.7056  -23.9351 H   0  0  0  0  0  0  0  0  0  0  0  0
  -14.4264   10.5879  -25.0094 H   0  0  0  0  0  0  0  0  0  0  0  0
   -7.9277   10.4398  -26.0602 H   0  0  0  0  0  0  0  0  0  0  0  0
  -11.7515    7.0221  -27.2632 H   0  0  0  0  0  0  0  0  0  0  0  0
  -10.3727    6.3081  -26.3717 H   0  0  0  0  0  0  0  0  0  0  0  0
  -10.0871   12.5742  -22.5179 H   0  0  0  0  0  0  0  0  0  0  0  0
  -11.8416   15.4641  -22.0739 H   0  0  0  0  0  0  0  0  0  0  0  0
  1  2  1  0
  2  3  1  0
  3  4  1  0
  4  5  1  0
  5  6  1  0
  5  7  1  0
  7  8  1  0
  8  9  2  0
  9 10  1  0
 10 11  2  0
 11 12  1  0
 12 13  2  0
 13 14  1  0
 14 15  2  0
 15 16  1  0
  4 17  1  0
  3 18  1  0
  6  2  1  0
 11  7  1  0
 15 10  1  0
  1 19  1  0
  1 20  1  0
  2 21  1  0
  3 22  1  0
  4 23  1  0
  5 24  1  0
  8 25  1  0
 13 26  1  0
 16 27  1  0
 16 28  1  0
 17 29  1  0
 18 30  1  0
M  RAD  1   1   2
M  END
$$$$

     RDKit          3D

 30 32  0  0  0  0  0  0  0  0999 V2000
  -12.4151   13.7616  -21.5983 C   0  0  0  0  0  3  0  0  0  0  0  0
  -12.8235   13.6264  -23.0429 C   0  0  0  0  0  0  0  0  0  0  0  0
  -12.1610   14.7003  -23.8573 C   0  0  0  0  0  0  0  0  0  0  0  0
  -11.5323   13.8862  -24.9943 C   0  0  0  0  0  0  0  0  0  0  0  0
  -12.4528   12.6591  -24.9438 C   0  0  0  0  0  0  0  0  0  0  0  0
  -12.4699   12.4031  -23.5951 O   0  0  0  0  0  0  0  0  0  0  0  0
  -11.9218   11.5702  -25.7300 N   0  0  0  0  0  0  0  0  0  0  0  0
  -11.8655   11.6084  -27.0742 C   0  0  0  0  0  0  0  0  0  0  0  0
  -11.3253   10.4550  -27.5006 N   0  0  0  0  0  0  0  0  0  0  0  0
  -11.0456    9.6979  -26.4075 C   0  0  0  0  0  0  0  0  0  0  0  0
  -11.4232   10.4043  -25.2909 C   0  0  0  0  0  0  0  0  0  0  0  0
  -11.2778    9.9275  -24.0408 N   0  0  0  0  0  0  0  0  0  0  0  0
  -10.7302    8.6910  -23.9192 C   0  0  0  0  0  0  0  0  0  0  0  0
  -10.3490    7.9707  -24.9887 N   0  0  0  0  0  0  0  0  0  0  0  0
  -10.4973    8.4536  -26.2360 C   0  0  0  0  0  0  0  0  0  0  0  0
  -10.1123    7.7354  -27.3925 N   0  0  0  0  0  0  0  0  0  0  0  0
  -11.5890   14.5340  -26.1984 O   0  0  0  0  0  0  0  0  0  0  0  0
  -13.1357   15.5234  -24.4454 O   0  0  0  0  0  0  0  0  0  0  0  0
  -11.4533   14.2577  -21.4583 H   0  0  0  0  0  0  0  0  0  0  0  0
  -12.5945   12.8752  -20.9931 H   0  0  0  0  0  0  0  0  0  0  0  0
  -13.9443   13.6947  -23.0676 H   0  0  0  0  0  0  0  0  0  0  0  0
  -11.4197   15.2903  -23.3140 H   0  0  0  0  0  0  0  0  0  0  0  0
  -10.5349   13.5866  -24.6703 H   0  0  0  0  0  0  0  0  0  0  0  0
  -13.4595   12.9066  -25.2791 H   0  0  0  0  0  0  0  0  0  0  0  0
  -12.1808   12.3937  -27.7451 H   0  0  0  0  0  0  0  0  0  0  0  0
  -10.5747    8.2261  -22.9511 H   0  0  0  0  0  0  0  0  0  0  0  0
  -10.7916    7.3163  -28.0522 H   0  0  0  0  0  0  0  0  0  0  0  0
   -9.1003    7.6246  -27.5868 H   0  0  0  0  0  0  0  0  0  0  0  0
  -10.8284   14.1757  -26.7590 H   0  0  0  0  0  0  0  0  0  0  0  0
  -12.8769   15.8065  -25.3630 H   0  0  0  0  0  0  0  0  0  0  0  0
  1  2  1  0
  2  3  1  0
  3  4  1  0
  4  5  1  0
  5  6  1  0
  5  7  1  0
  7  8  1  0
  8  9  2  0
  9 10  1  0
 10 11  2  0
 11 12  1  0
 12 13  2  0
 13 14  1  0
 14 15  2  0
 15 16  1  0
  4 17  1  0
  3 18  1  0
  6  2  1  0
 11  7  1  0
 15 10  1  0
  1 19  1  0
  1 20  1  0
  2 21  1  0
  3 22  1  0
  4 23  1  0
  5 24  1  0
  8 25  1  0
 13 26  1  0
 16 27  1  0
 16 28  1  0
 17 29  1  0
 18 30  1  0
M  RAD  1   1   2
M  END
$$$$

     RDKit          3D

 30 32  0  0  0  0  0  0  0  0999 V2000
  -13.0263   15.6232  -25.3258 C   0  0  0  0  0  3  0  0  0  0  0  0
  -13.1637   14.5159  -24.2970 C   0  0  0  0  0  0  0  0  0  0  0  0
  -11.9571   14.4138  -23.4021 C   0  0  0  0  0  0  0  0  0  0  0  0
  -11.3487   13.0892  -23.8832 C   0  0  0  0  0  0  0  0  0  0  0  0
  -12.6017   12.3527  -24.2473 C   0  0  0  0  0  0  0  0  0  0  0  0
  -13.3214   13.3186  -24.9453 O   0  0  0  0  0  0  0  0  0  0  0  0
  -12.3863   11.1704  -25.0084 N   0  0  0  0  0  0  0  0  0  0  0  0
  -13.3624   10.4854  -25.6261 C   0  0  0  0  0  0  0  0  0  0  0  0
  -12.8053    9.4312  -26.2461 N   0  0  0  0  0  0  0  0  0  0  0  0
  -11.4783    9.4400  -26.0270 C   0  0  0  0  0  0  0  0  0  0  0  0
  -11.2200   10.5515  -25.2375 C   0  0  0  0  0  0  0  0  0  0  0  0
   -9.9477   10.7807  -24.8790 N   0  0  0  0  0  0  0  0  0  0  0  0
   -8.9790    9.9318  -25.2947 C   0  0  0  0  0  0  0  0  0  0  0  0
   -9.2324    8.8568  -26.0588 N   0  0  0  0  0  0  0  0  0  0  0  0
  -10.4784    8.5848  -26.4420 C   0  0  0  0  0  0  0  0  0  0  0  0
  -10.8461    7.4805  -27.2441 N   0  0  0  0  0  0  0  0  0  0  0  0
  -10.5569   13.3857  -24.9840 O   0  0  0  0  0  0  0  0  0  0  0  0
  -12.4153   14.1958  -22.1076 O   0  0  0  0  0  0  0  0  0  0  0  0
  -13.9247   16.2786  -25.3610 H   0  0  0  0  0  0  0  0  0  0  0  0
  -12.0877   16.1827  -25.2365 H   0  0  0  0  0  0  0  0  0  0  0  0
  -14.1097   14.6954  -23.7098 H   0  0  0  0  0  0  0  0  0  0  0  0
  -11.2535   15.2409  -23.4965 H   0  0  0  0  0  0  0  0  0  0  0  0
  -10.7586   12.6014  -23.1097 H   0  0  0  0  0  0  0  0  0  0  0  0
  -13.1081   12.0728  -23.2937 H   0  0  0  0  0  0  0  0  0  0  0  0
  -14.4340   10.6863  -25.6630 H   0  0  0  0  0  0  0  0  0  0  0  0
   -7.9484   10.1015  -25.0150 H   0  0  0  0  0  0  0  0  0  0  0  0
  -10.9986    6.5187  -26.8775 H   0  0  0  0  0  0  0  0  0  0  0  0
  -10.9740    7.6313  -28.2652 H   0  0  0  0  0  0  0  0  0  0  0  0
  -11.0326   13.9045  -25.6646 H   0  0  0  0  0  0  0  0  0  0  0  0
  -13.3867   13.9636  -22.0798 H   0  0  0  0  0  0  0  0  0  0  0  0
  1  2  1  0
  2  3  1  0
  3  4  1  0
  4  5  1  0
  5  6  1  0
  5  7  1  0
  7  8  1  0
  8  9  2  0
  9 10  1  0
 10 11  2  0
 11 12  1  0
 12 13  2  0
 13 14  1  0
 14 15  2  0
 15 16  1  0
  4 17  1  0
  3 18  1  0
  6  2  1  0
 11  7  1  0
 15 10  1  0
  1 19  1  0
  1 20  1  0
  2 21  1  0
  3 22  1  0
  4 23  1  0
  5 24  1  0
  8 25  1  0
 13 26  1  0
 16 27  1  0
 16 28  1  0
 17 29  1  0
 18 30  1  0
M  RAD  1   1   2
M  END
$$$$

     RDKit          3D

 30 32  0  0  0  0  0  0  0  0999 V2000
  -13.0958   15.7962  -25.4268 C   0  0  0  0  0  3  0  0  0  0  0  0
  -12.1182   14.8522  -24.7312 C   0  0  0  0  0  0  0  0  0  0  0  0
  -12.6636   14.4737  -23.3898 C   0  0  0  0  0  0  0  0  0  0  0  0
  -12.5509   12.9633  -23.3760 C   0  0  0  0  0  0  0  0  0  0  0  0
  -11.7045   12.6845  -24.5801 C   0  0  0  0  0  0  0  0  0  0  0  0
  -12.0170   13.7143  -25.4904 O   0  0  0  0  0  0  0  0  0  0  0  0
  -11.8796   11.3904  -25.1415 N   0  0  0  0  0  0  0  0  0  0  0  0
  -13.0252   10.7809  -25.4790 C   0  0  0  0  0  0  0  0  0  0  0  0
  -12.7512    9.5505  -25.9824 N   0  0  0  0  0  0  0  0  0  0  0  0
  -11.4240    9.3912  -25.9588 C   0  0  0  0  0  0  0  0  0  0  0  0
  -10.8799   10.5381  -25.4345 C   0  0  0  0  0  0  0  0  0  0  0  0
   -9.5358   10.5712  -25.3281 N   0  0  0  0  0  0  0  0  0  0  0  0
   -8.7478    9.5442  -25.7099 C   0  0  0  0  0  0  0  0  0  0  0  0
   -9.2820    8.4162  -26.2254 N   0  0  0  0  0  0  0  0  0  0  0  0
  -10.6192    8.3364  -26.3512 C   0  0  0  0  0  0  0  0  0  0  0  0
  -11.1490    7.1371  -26.8968 N   0  0  0  0  0  0  0  0  0  0  0  0
  -13.7870   12.4088  -23.3835 O   0  0  0  0  0  0  0  0  0  0  0  0
  -11.8962   15.0591  -22.3707 O   0  0  0  0  0  0  0  0  0  0  0  0
  -13.0637   15.6584  -26.5369 H   0  0  0  0  0  0  0  0  0  0  0  0
  -14.1262   15.5640  -25.0334 H   0  0  0  0  0  0  0  0  0  0  0  0
  -11.1656   15.4137  -24.6193 H   0  0  0  0  0  0  0  0  0  0  0  0
  -13.7282   14.8125  -23.3034 H   0  0  0  0  0  0  0  0  0  0  0  0
  -12.0276   12.6822  -22.4443 H   0  0  0  0  0  0  0  0  0  0  0  0
  -10.6481   12.8633  -24.2893 H   0  0  0  0  0  0  0  0  0  0  0  0
  -13.9994   11.1960  -25.3698 H   0  0  0  0  0  0  0  0  0  0  0  0
   -7.6591    9.5750  -25.6219 H   0  0  0  0  0  0  0  0  0  0  0  0
  -10.6747    6.7079  -27.7276 H   0  0  0  0  0  0  0  0  0  0  0  0
  -11.9784    6.6480  -26.5321 H   0  0  0  0  0  0  0  0  0  0  0  0
  -14.5342   12.9916  -23.5993 H   0  0  0  0  0  0  0  0  0  0  0  0
  -12.1803   15.9939  -22.2716 H   0  0  0  0  0  0  0  0  0  0  0  0
  1  2  1  0
  2  3  1  0
  3  4  1  0
  4  5  1  0
  5  6  1  0
  5  7  1  0
  7  8  1  0
  8  9  2  0
  9 10  1  0
 10 11  2  0
 11 12  1  0
 12 13  2  0
 13 14  1  0
 14 15  2  0
 15 16  1  0
  4 17  1  0
  3 18  1  0
  6  2  1  0
 11  7  1  0
 15 10  1  0
  1 19  1  0
  1 20  1  0
  2 21  1  0
  3 22  1  0
  4 23  1  0
  5 24  1  0
  8 25  1  0
 13 26  1  0
 16 27  1  0
 16 28  1  0
 17 29  1  0
 18 30  1  0
M  RAD  1   1   2
M  END
$$$$

     RDKit          3D

 30 32  0  0  0  0  0  0  0  0999 V2000
  -14.4676   14.9803  -23.4668 C   0  0  0  0  0  3  0  0  0  0  0  0
  -13.2449   14.1361  -23.5435 C   0  0  0  0  0  0  0  0  0  0  0  0
  -12.2639   14.6210  -24.6191 C   0  0  0  0  0  0  0  0  0  0  0  0
  -11.3323   13.4069  -24.6748 C   0  0  0  0  0  0  0  0  0  0  0  0
  -12.2298   12.3117  -24.1485 C   0  0  0  0  0  0  0  0  0  0  0  0
  -13.4946   12.8372  -24.0108 O   0  0  0  0  0  0  0  0  0  0  0  0
  -12.1729   11.2185  -25.0908 N   0  0  0  0  0  0  0  0  0  0  0  0
  -13.1039   10.8270  -25.9731 C   0  0  0  0  0  0  0  0  0  0  0  0
  -12.6694    9.7664  -26.6702 N   0  0  0  0  0  0  0  0  0  0  0  0
  -11.4268    9.4897  -26.2055 C   0  0  0  0  0  0  0  0  0  0  0  0
  -11.1117   10.3955  -25.2172 C   0  0  0  0  0  0  0  0  0  0  0  0
   -9.9140   10.3081  -24.6093 N   0  0  0  0  0  0  0  0  0  0  0  0
   -9.0502    9.3467  -24.9721 C   0  0  0  0  0  0  0  0  0  0  0  0
   -9.3521    8.4701  -25.9268 N   0  0  0  0  0  0  0  0  0  0  0  0
  -10.5309    8.5074  -26.5686 C   0  0  0  0  0  0  0  0  0  0  0  0
  -10.8296    7.5665  -27.5788 N   0  0  0  0  0  0  0  0  0  0  0  0
  -10.3268   13.6523  -23.7361 O   0  0  0  0  0  0  0  0  0  0  0  0
  -11.6057   15.7665  -24.2440 O   0  0  0  0  0  0  0  0  0  0  0  0
  -14.5298   15.4219  -22.4305 H   0  0  0  0  0  0  0  0  0  0  0  0
  -14.4781   15.8243  -24.1611 H   0  0  0  0  0  0  0  0  0  0  0  0
  -12.6787   14.0377  -22.6128 H   0  0  0  0  0  0  0  0  0  0  0  0
  -12.7649   14.6848  -25.6013 H   0  0  0  0  0  0  0  0  0  0  0  0
  -10.9559   13.2169  -25.6800 H   0  0  0  0  0  0  0  0  0  0  0  0
  -11.9055   11.9726  -23.1280 H   0  0  0  0  0  0  0  0  0  0  0  0
  -14.0946   11.2738  -26.1420 H   0  0  0  0  0  0  0  0  0  0  0  0
   -8.0637    9.2491  -24.4943 H   0  0  0  0  0  0  0  0  0  0  0  0
  -11.6423    6.9336  -27.4690 H   0  0  0  0  0  0  0  0  0  0  0  0
  -10.2550    7.4878  -28.4369 H   0  0  0  0  0  0  0  0  0  0  0  0
  -10.3208   14.5911  -23.4187 H   0  0  0  0  0  0  0  0  0  0  0  0
  -11.2447   16.2224  -25.0219 H   0  0  0  0  0  0  0  0  0  0  0  0
  1  2  1  0
  2  3  1  0
  3  4  1  0
  4  5  1  0
  5  6  1  0
  5  7  1  0
  7  8  1  0
  8  9  2  0
  9 10  1  0
 10 11  2  0
 11 12  1  0
 12 13  2  0
 13 14  1  0
 14 15  2  0
 15 16  1  0
  4 17  1  0
  3 18  1  0
  6  2  1  0
 11  7  1  0
 15 10  1  0
  1 19  1  0
  1 20  1  0
  2 21  1  0
  3 22  1  0
  4 23  1  0
  5 24  1  0
  8 25  1  0
 13 26  1  0
 16 27  1  0
 16 28  1  0
 17 29  1  0
 18 30  1  0
M  RAD  1   1   2
M  END
$$$$

     RDKit          3D

 30 32  0  0  0  0  0  0  0  0999 V2000
  -10.6150   14.9652  -22.9350 C   0  0  0  0  0  3  0  0  0  0  0  0
  -11.8139   14.1100  -23.2066 C   0  0  0  0  0  0  0  0  0  0  0  0
  -12.5671   14.5850  -24.4587 C   0  0  0  0  0  0  0  0  0  0  0  0
  -13.4548   13.3413  -24.6227 C   0  0  0  0  0  0  0  0  0  0  0  0
  -12.5243   12.2608  -24.2662 C   0  0  0  0  0  0  0  0  0  0  0  0
  -11.4531   12.8352  -23.5766 O   0  0  0  0  0  0  0  0  0  0  0  0
  -11.9881   11.4891  -25.3367 N   0  0  0  0  0  0  0  0  0  0  0  0
  -11.9519   11.6792  -26.6533 C   0  0  0  0  0  0  0  0  0  0  0  0
  -11.3316   10.6699  -27.2891 N   0  0  0  0  0  0  0  0  0  0  0  0
  -10.9630    9.8121  -26.3409 C   0  0  0  0  0  0  0  0  0  0  0  0
  -11.3628   10.3051  -25.1218 C   0  0  0  0  0  0  0  0  0  0  0  0
  -11.0735    9.5674  -24.0459 N   0  0  0  0  0  0  0  0  0  0  0  0
  -10.4244    8.3933  -24.1048 C   0  0  0  0  0  0  0  0  0  0  0  0
  -10.0401    7.9242  -25.3018 N   0  0  0  0  0  0  0  0  0  0  0  0
  -10.2954    8.6092  -26.4257 C   0  0  0  0  0  0  0  0  0  0  0  0
   -9.8762    8.0866  -27.6748 N   0  0  0  0  0  0  0  0  0  0  0  0
  -14.1013   13.2814  -25.7988 O   0  0  0  0  0  0  0  0  0  0  0  0
  -13.2904   15.6930  -24.0965 O   0  0  0  0  0  0  0  0  0  0  0  0
  -10.6348   15.9462  -23.4178 H   0  0  0  0  0  0  0  0  0  0  0  0
   -9.6540   14.4353  -23.0014 H   0  0  0  0  0  0  0  0  0  0  0  0
  -12.5337   14.0707  -22.3648 H   0  0  0  0  0  0  0  0  0  0  0  0
  -11.8858   14.7188  -25.2992 H   0  0  0  0  0  0  0  0  0  0  0  0
  -14.2137   13.4515  -23.7991 H   0  0  0  0  0  0  0  0  0  0  0  0
  -13.0125   11.5630  -23.5503 H   0  0  0  0  0  0  0  0  0  0  0  0
  -12.3607   12.5247  -27.1586 H   0  0  0  0  0  0  0  0  0  0  0  0
  -10.2122    7.8261  -23.1823 H   0  0  0  0  0  0  0  0  0  0  0  0
   -9.9166    7.0549  -27.8164 H   0  0  0  0  0  0  0  0  0  0  0  0
   -9.5293    8.6569  -28.4657 H   0  0  0  0  0  0  0  0  0  0  0  0
  -14.2302   14.1999  -26.1952 H   0  0  0  0  0  0  0  0  0  0  0  0
  -14.0253   15.8626  -24.7533 H   0  0  0  0  0  0  0  0  0  0  0  0
  1  2  1  0
  2  3  1  0
  3  4  1  0
  4  5  1  0
  5  6  1  0
  5  7  1  0
  7  8  1  0
  8  9  2  0
  9 10  1  0
 10 11  2  0
 11 12  1  0
 12 13  2  0
 13 14  1  0
 14 15  2  0
 15 16  1  0
  4 17  1  0
  3 18  1  0
  6  2  1  0
 11  7  1  0
 15 10  1  0
  1 19  1  0
  1 20  1  0
  2 21  1  0
  3 22  1  0
  4 23  1  0
  5 24  1  0
  8 25  1  0
 13 26  1  0
 16 27  1  0
 16 28  1  0
 17 29  1  0
 18 30  1  0
M  RAD  1   1   2
M  END
$$$$

     RDKit          3D

 30 32  0  0  0  0  0  0  0  0999 V2000
  -13.1439   13.8736  -22.2213 C   0  0  0  0  0  3  0  0  0  0  0  0
  -13.5738   14.0200  -23.6797 C   0  0  0  0  0  0  0  0  0  0  0  0
  -12.5754   14.8023  -24.4747 C   0  0  0  0  0  0  0  0  0  0  0  0
  -11.4567   13.8080  -24.6692 C   0  0  0  0  0  0  0  0  0  0  0  0
  -12.1045   12.5132  -24.2501 C   0  0  0  0  0  0  0  0  0  0  0  0
  -13.4879   12.7456  -24.2395 O   0  0  0  0  0  0  0  0  0  0  0  0
  -11.8872   11.4667  -25.2466 N   0  0  0  0  0  0  0  0  0  0  0  0
  -12.4373   11.4847  -26.4744 C   0  0  0  0  0  0  0  0  0  0  0  0
  -12.0134   10.3728  -27.0934 N   0  0  0  0  0  0  0  0  0  0  0  0
  -11.2135    9.6553  -26.2933 C   0  0  0  0  0  0  0  0  0  0  0  0
  -11.1256   10.3529  -25.0986 C   0  0  0  0  0  0  0  0  0  0  0  0
  -10.3877    9.8998  -24.0630 N   0  0  0  0  0  0  0  0  0  0  0  0
   -9.7254    8.7239  -24.2298 C   0  0  0  0  0  0  0  0  0  0  0  0
   -9.7981    8.0332  -25.3800 N   0  0  0  0  0  0  0  0  0  0  0  0
  -10.5219    8.4514  -26.4332 C   0  0  0  0  0  0  0  0  0  0  0  0
  -10.6094    7.7375  -27.6501 N   0  0  0  0  0  0  0  0  0  0  0  0
  -10.9752   13.7620  -25.9528 O   0  0  0  0  0  0  0  0  0  0  0  0
  -12.0902   15.9050  -23.8064 O   0  0  0  0  0  0  0  0  0  0  0  0
  -13.6639   12.9377  -21.8629 H   0  0  0  0  0  0  0  0  0  0  0  0
  -13.4866   14.7422  -21.6283 H   0  0  0  0  0  0  0  0  0  0  0  0
  -14.6095   14.4002  -23.7587 H   0  0  0  0  0  0  0  0  0  0  0  0
  -13.0486   15.1161  -25.4260 H   0  0  0  0  0  0  0  0  0  0  0  0
  -10.6111   14.0668  -23.9690 H   0  0  0  0  0  0  0  0  0  0  0  0
  -11.7200   12.2091  -23.2619 H   0  0  0  0  0  0  0  0  0  0  0  0
  -13.0913   12.2691  -26.8469 H   0  0  0  0  0  0  0  0  0  0  0  0
   -9.1217    8.3206  -23.4291 H   0  0  0  0  0  0  0  0  0  0  0  0
  -11.1369    6.8469  -27.6746 H   0  0  0  0  0  0  0  0  0  0  0  0
  -10.1625    8.0764  -28.5190 H   0  0  0  0  0  0  0  0  0  0  0  0
  -11.2561   14.5169  -26.5265 H   0  0  0  0  0  0  0  0  0  0  0  0
  -11.4965   16.4010  -24.4279 H   0  0  0  0  0  0  0  0  0  0  0  0
  1  2  1  0
  2  3  1  0
  3  4  1  0
  4  5  1  0
  5  6  1  0
  5  7  1  0
  7  8  1  0
  8  9  2  0
  9 10  1  0
 10 11  2  0
 11 12  1  0
 12 13  2  0
 13 14  1  0
 14 15  2  0
 15 16  1  0
  4 17  1  0
  3 18  1  0
  6  2  1  0
 11  7  1  0
 15 10  1  0
  1 19  1  0
  1 20  1  0
  2 21  1  0
  3 22  1  0
  4 23  1  0
  5 24  1  0
  8 25  1  0
 13 26  1  0
 16 27  1  0
 16 28  1  0
 17 29  1  0
 18 30  1  0
M  RAD  1   1   2
M  END
$$$$

     RDKit          3D

 30 32  0  0  0  0  0  0  0  0999 V2000
  -14.5316   14.9414  -23.4077 C   0  0  0  0  0  3  0  0  0  0  0  0
  -13.4849   14.2328  -24.2244 C   0  0  0  0  0  0  0  0  0  0  0  0
  -12.0774   14.6060  -23.8157 C   0  0  0  0  0  0  0  0  0  0  0  0
  -11.3366   13.4712  -24.5416 C   0  0  0  0  0  0  0  0  0  0  0  0
  -12.2861   12.3418  -24.1766 C   0  0  0  0  0  0  0  0  0  0  0  0
  -13.5505   12.8710  -24.1073 O   0  0  0  0  0  0  0  0  0  0  0  0
  -12.1892   11.2330  -25.0733 N   0  0  0  0  0  0  0  0  0  0  0  0
  -13.1410   10.8177  -25.9100 C   0  0  0  0  0  0  0  0  0  0  0  0
  -12.6784    9.7457  -26.5900 N   0  0  0  0  0  0  0  0  0  0  0  0
  -11.4155    9.4796  -26.1768 C   0  0  0  0  0  0  0  0  0  0  0  0
  -11.1282   10.4209  -25.2283 C   0  0  0  0  0  0  0  0  0  0  0  0
   -9.8921   10.3536  -24.6592 N   0  0  0  0  0  0  0  0  0  0  0  0
   -9.0053    9.4163  -25.0092 C   0  0  0  0  0  0  0  0  0  0  0  0
   -9.3119    8.5089  -25.9387 N   0  0  0  0  0  0  0  0  0  0  0  0
  -10.5148    8.5058  -26.5510 C   0  0  0  0  0  0  0  0  0  0  0  0
  -10.8291    7.5279  -27.5445 N   0  0  0  0  0  0  0  0  0  0  0  0
  -10.0678   13.2909  -24.0519 O   0  0  0  0  0  0  0  0  0  0  0  0
  -11.6865   15.8435  -24.2497 O   0  0  0  0  0  0  0  0  0  0  0  0
  -14.5631   16.0024  -23.6473 H   0  0  0  0  0  0  0  0  0  0  0  0
  -14.3685   14.7281  -22.3410 H   0  0  0  0  0  0  0  0  0  0  0  0
  -13.5796   14.5101  -25.3018 H   0  0  0  0  0  0  0  0  0  0  0  0
  -11.9520   14.4370  -22.7331 H   0  0  0  0  0  0  0  0  0  0  0  0
  -11.3927   13.6567  -25.6222 H   0  0  0  0  0  0  0  0  0  0  0  0
  -11.9275   11.9740  -23.1704 H   0  0  0  0  0  0  0  0  0  0  0  0
  -14.1430   11.2048  -26.0877 H   0  0  0  0  0  0  0  0  0  0  0  0
   -8.0184    9.3504  -24.5652 H   0  0  0  0  0  0  0  0  0  0  0  0
  -11.6253    6.8678  -27.3721 H   0  0  0  0  0  0  0  0  0  0  0  0
  -10.2413    7.5200  -28.4047 H   0  0  0  0  0  0  0  0  0  0  0  0
   -9.4707   13.9109  -24.5577 H   0  0  0  0  0  0  0  0  0  0  0  0
  -11.4918   16.3928  -23.4238 H   0  0  0  0  0  0  0  0  0  0  0  0
  1  2  1  0
  2  3  1  0
  3  4  1  0
  4  5  1  0
  5  6  1  0
  5  7  1  0
  7  8  1  0
  8  9  2  0
  9 10  1  0
 10 11  2  0
 11 12  1  0
 12 13  2  0
 13 14  1  0
 14 15  2  0
 15 16  1  0
  4 17  1  0
  3 18  1  0
  6  2  1  0
 11  7  1  0
 15 10  1  0
  1 19  1  0
  1 20  1  0
  2 21  1  0
  3 22  1  0
  4 23  1  0
  5 24  1  0
  8 25  1  0
 13 26  1  0
 16 27  1  0
 16 28  1  0
 17 29  1  0
 18 30  1  0
M  RAD  1   1   2
M  END
$$$$

     RDKit          3D

 30 32  0  0  0  0  0  0  0  0999 V2000
  -13.2417   15.6822  -25.5311 C   0  0  0  0  0  3  0  0  0  0  0  0
  -13.1485   14.4733  -24.6294 C   0  0  0  0  0  0  0  0  0  0  0  0
  -11.8523   14.5815  -23.8606 C   0  0  0  0  0  0  0  0  0  0  0  0
  -11.3277   13.1438  -23.9750 C   0  0  0  0  0  0  0  0  0  0  0  0
  -12.5551   12.4125  -24.3995 C   0  0  0  0  0  0  0  0  0  0  0  0
  -13.1207   13.2844  -25.3291 O   0  0  0  0  0  0  0  0  0  0  0  0
  -12.3289   11.0957  -24.9135 N   0  0  0  0  0  0  0  0  0  0  0  0
  -13.2866   10.1299  -24.9004 C   0  0  0  0  0  0  0  0  0  0  0  0
  -12.7779    9.0177  -25.4447 N   0  0  0  0  0  0  0  0  0  0  0  0
  -11.5164    9.2839  -25.7945 C   0  0  0  0  0  0  0  0  0  0  0  0
  -11.2362   10.5861  -25.4611 C   0  0  0  0  0  0  0  0  0  0  0  0
  -10.0157   11.0714  -25.7243 N   0  0  0  0  0  0  0  0  0  0  0  0
   -9.0539   10.3571  -26.2943 C   0  0  0  0  0  0  0  0  0  0  0  0
   -9.3038    9.0820  -26.6292 N   0  0  0  0  0  0  0  0  0  0  0  0
  -10.5277    8.5382  -26.3842 C   0  0  0  0  0  0  0  0  0  0  0  0
  -10.8034    7.2015  -26.7305 N   0  0  0  0  0  0  0  0  0  0  0  0
  -10.8634   12.7778  -22.7143 O   0  0  0  0  0  0  0  0  0  0  0  0
  -12.1670   14.8890  -22.5402 O   0  0  0  0  0  0  0  0  0  0  0  0
  -14.2925   15.9621  -25.7450 H   0  0  0  0  0  0  0  0  0  0  0  0
  -12.6426   15.5576  -26.4557 H   0  0  0  0  0  0  0  0  0  0  0  0
  -14.0328   14.4668  -23.9645 H   0  0  0  0  0  0  0  0  0  0  0  0
  -11.1556   15.3018  -24.2966 H   0  0  0  0  0  0  0  0  0  0  0  0
  -10.5436   13.1667  -24.7301 H   0  0  0  0  0  0  0  0  0  0  0  0
  -13.2411   12.3677  -23.5030 H   0  0  0  0  0  0  0  0  0  0  0  0
  -14.3003   10.2138  -24.5208 H   0  0  0  0  0  0  0  0  0  0  0  0
   -8.0545   10.7393  -26.5147 H   0  0  0  0  0  0  0  0  0  0  0  0
  -11.1474    6.9774  -27.6746 H   0  0  0  0  0  0  0  0  0  0  0  0
  -10.6610    6.4509  -26.0407 H   0  0  0  0  0  0  0  0  0  0  0  0
   -9.8651   12.8896  -22.6970 H   0  0  0  0  0  0  0  0  0  0  0  0
  -13.1438   14.8673  -22.3603 H   0  0  0  0  0  0  0  0  0  0  0  0
  1  2  1  0
  2  3  1  0
  3  4  1  0
  4  5  1  0
  5  6  1  0
  5  7  1  0
  7  8  1  0
  8  9  2  0
  9 10  1  0
 10 11  2  0
 11 12  1  0
 12 13  2  0
 13 14  1  0
 14 15  2  0
 15 16  1  0
  4 17  1  0
  3 18  1  0
  6  2  1  0
 11  7  1  0
 15 10  1  0
  1 19  1  0
  1 20  1  0
  2 21  1  0
  3 22  1  0
  4 23  1  0
  5 24  1  0
  8 25  1  0
 13 26  1  0
 16 27  1  0
 16 28  1  0
 17 29  1  0
 18 30  1  0
M  RAD  1   1   2
M  END
$$$$

     RDKit          3D

 30 32  0  0  0  0  0  0  0  0999 V2000
  -12.0204   13.9684  -21.7817 C   0  0  0  0  0  3  0  0  0  0  0  0
  -12.7640   13.5696  -23.0183 C   0  0  0  0  0  0  0  0  0  0  0  0
  -12.8050   14.6499  -24.0682 C   0  0  0  0  0  0  0  0  0  0  0  0
  -12.4329   13.8491  -25.3233 C   0  0  0  0  0  0  0  0  0  0  0  0
  -11.4646   12.8426  -24.6867 C   0  0  0  0  0  0  0  0  0  0  0  0
  -12.1990   12.4522  -23.5720 O   0  0  0  0  0  0  0  0  0  0  0  0
  -11.1776   11.7552  -25.5670 N   0  0  0  0  0  0  0  0  0  0  0  0
  -10.8814   11.8956  -26.8719 C   0  0  0  0  0  0  0  0  0  0  0  0
  -10.6740   10.6494  -27.3638 N   0  0  0  0  0  0  0  0  0  0  0  0
  -10.8369    9.7428  -26.3859 C   0  0  0  0  0  0  0  0  0  0  0  0
  -11.1571   10.4493  -25.2446 C   0  0  0  0  0  0  0  0  0  0  0  0
  -11.3776    9.7608  -24.0895 N   0  0  0  0  0  0  0  0  0  0  0  0
  -11.2957    8.4349  -24.0224 C   0  0  0  0  0  0  0  0  0  0  0  0
  -10.9888    7.7366  -25.1095 N   0  0  0  0  0  0  0  0  0  0  0  0
  -10.7623    8.3708  -26.2729 C   0  0  0  0  0  0  0  0  0  0  0  0
  -10.4357    7.6000  -27.4214 N   0  0  0  0  0  0  0  0  0  0  0  0
  -11.8230   14.6267  -26.2754 O   0  0  0  0  0  0  0  0  0  0  0  0
  -14.0311   15.2541  -24.1814 O   0  0  0  0  0  0  0  0  0  0  0  0
  -12.5874   13.6869  -20.8543 H   0  0  0  0  0  0  0  0  0  0  0  0
  -11.7850   15.0339  -21.7237 H   0  0  0  0  0  0  0  0  0  0  0  0
  -13.8374   13.3998  -22.7091 H   0  0  0  0  0  0  0  0  0  0  0  0
  -11.9697   15.3358  -23.8882 H   0  0  0  0  0  0  0  0  0  0  0  0
  -13.2974   13.2755  -25.6646 H   0  0  0  0  0  0  0  0  0  0  0  0
  -10.5592   13.3713  -24.3087 H   0  0  0  0  0  0  0  0  0  0  0  0
  -10.8263   12.8346  -27.4011 H   0  0  0  0  0  0  0  0  0  0  0  0
  -11.4770    7.9250  -23.0903 H   0  0  0  0  0  0  0  0  0  0  0  0
  -10.1593    6.5924  -27.3627 H   0  0  0  0  0  0  0  0  0  0  0  0
  -10.4548    8.0023  -28.3901 H   0  0  0  0  0  0  0  0  0  0  0  0
  -12.3706   14.6796  -27.1075 H   0  0  0  0  0  0  0  0  0  0  0  0
  -14.1628   15.6803  -25.0513 H   0  0  0  0  0  0  0  0  0  0  0  0
  1  2  1  0
  2  3  1  0
  3  4  1  0
  4  5  1  0
  5  6  1  0
  5  7  1  0
  7  8  1  0
  8  9  2  0
  9 10  1  0
 10 11  2  0
 11 12  1  0
 12 13  2  0
 13 14  1  0
 14 15  2  0
 15 16  1  0
  4 17  1  0
  3 18  1  0
  6  2  1  0
 11  7  1  0
 15 10  1  0
  1 19  1  0
  1 20  1  0
  2 21  1  0
  3 22  1  0
  4 23  1  0
  5 24  1  0
  8 25  1  0
 13 26  1  0
 16 27  1  0
 16 28  1  0
 17 29  1  0
 18 30  1  0
M  RAD  1   1   2
M  END
$$$$

     RDKit          3D

 30 32  0  0  0  0  0  0  0  0999 V2000
  -10.2064   14.5475  -24.8647 C   0  0  0  0  0  3  0  0  0  0  0  0
  -11.1555   14.2091  -23.7490 C   0  0  0  0  0  0  0  0  0  0  0  0
  -12.5273   14.8018  -24.0788 C   0  0  0  0  0  0  0  0  0  0  0  0
  -13.1003   13.6679  -24.9172 C   0  0  0  0  0  0  0  0  0  0  0  0
  -12.4591   12.4739  -24.2928 C   0  0  0  0  0  0  0  0  0  0  0  0
  -11.3681   12.8712  -23.5727 O   0  0  0  0  0  0  0  0  0  0  0  0
  -12.1398   11.4526  -25.2825 N   0  0  0  0  0  0  0  0  0  0  0  0
  -12.6159   11.3703  -26.5356 C   0  0  0  0  0  0  0  0  0  0  0  0
  -12.0914   10.2844  -27.1554 N   0  0  0  0  0  0  0  0  0  0  0  0
  -11.2787    9.6620  -26.3132 C   0  0  0  0  0  0  0  0  0  0  0  0
  -11.3136   10.4053  -25.1314 C   0  0  0  0  0  0  0  0  0  0  0  0
  -10.5635    9.9843  -24.0930 N   0  0  0  0  0  0  0  0  0  0  0  0
   -9.8064    8.8780  -24.2038 C   0  0  0  0  0  0  0  0  0  0  0  0
   -9.7833    8.1674  -25.3576 N   0  0  0  0  0  0  0  0  0  0  0  0
  -10.5055    8.5246  -26.4389 C   0  0  0  0  0  0  0  0  0  0  0  0
  -10.4582    7.7558  -27.6351 N   0  0  0  0  0  0  0  0  0  0  0  0
  -14.4811   13.6781  -24.7136 O   0  0  0  0  0  0  0  0  0  0  0  0
  -13.2729   14.8738  -22.9207 O   0  0  0  0  0  0  0  0  0  0  0  0
   -9.5690   15.4331  -24.6452 H   0  0  0  0  0  0  0  0  0  0  0  0
  -10.7442   14.7325  -25.8381 H   0  0  0  0  0  0  0  0  0  0  0  0
  -10.7938   14.6586  -22.7933 H   0  0  0  0  0  0  0  0  0  0  0  0
  -12.4520   15.7408  -24.6344 H   0  0  0  0  0  0  0  0  0  0  0  0
  -12.8313   13.7656  -25.9793 H   0  0  0  0  0  0  0  0  0  0  0  0
  -13.2048   12.0539  -23.5546 H   0  0  0  0  0  0  0  0  0  0  0  0
  -13.3060   12.0480  -26.9972 H   0  0  0  0  0  0  0  0  0  0  0  0
   -9.1931    8.5290  -23.3631 H   0  0  0  0  0  0  0  0  0  0  0  0
  -10.9033    6.8167  -27.7162 H   0  0  0  0  0  0  0  0  0  0  0  0
   -9.9689    8.1237  -28.4681 H   0  0  0  0  0  0  0  0  0  0  0  0
  -14.5982   13.4761  -23.7319 H   0  0  0  0  0  0  0  0  0  0  0  0
  -12.7895   15.4918  -22.3053 H   0  0  0  0  0  0  0  0  0  0  0  0
  1  2  1  0
  2  3  1  0
  3  4  1  0
  4  5  1  0
  5  6  1  0
  5  7  1  0
  7  8  1  0
  8  9  2  0
  9 10  1  0
 10 11  2  0
 11 12  1  0
 12 13  2  0
 13 14  1  0
 14 15  2  0
 15 16  1  0
  4 17  1  0
  3 18  1  0
  6  2  1  0
 11  7  1  0
 15 10  1  0
  1 19  1  0
  1 20  1  0
  2 21  1  0
  3 22  1  0
  4 23  1  0
  5 24  1  0
  8 25  1  0
 13 26  1  0
 16 27  1  0
 16 28  1  0
 17 29  1  0
 18 30  1  0
M  RAD  1   1   2
M  END
$$$$

     RDKit          3D

 30 32  0  0  0  0  0  0  0  0999 V2000
  -14.0466   13.0295  -23.7837 C   0  0  0  0  0  3  0  0  0  0  0  0
  -13.3994   14.2247  -24.4175 C   0  0  0  0  0  0  0  0  0  0  0  0
  -12.1334   14.5648  -23.6591 C   0  0  0  0  0  0  0  0  0  0  0  0
  -11.2822   13.3470  -24.0482 C   0  0  0  0  0  0  0  0  0  0  0  0
  -11.7459   13.1392  -25.4619 C   0  0  0  0  0  0  0  0  0  0  0  0
  -12.8970   13.8554  -25.6530 O   0  0  0  0  0  0  0  0  0  0  0  0
  -11.9530   11.7202  -25.7594 N   0  0  0  0  0  0  0  0  0  0  0  0
  -13.0623   11.1336  -26.2374 C   0  0  0  0  0  0  0  0  0  0  0  0
  -12.8490    9.8173  -26.3729 N   0  0  0  0  0  0  0  0  0  0  0  0
  -11.5961    9.5288  -25.9842 C   0  0  0  0  0  0  0  0  0  0  0  0
  -11.0566   10.7402  -25.6045 C   0  0  0  0  0  0  0  0  0  0  0  0
   -9.7874   10.7423  -25.1640 N   0  0  0  0  0  0  0  0  0  0  0  0
   -9.0895    9.5939  -25.1047 C   0  0  0  0  0  0  0  0  0  0  0  0
   -9.6288    8.4182  -25.4787 N   0  0  0  0  0  0  0  0  0  0  0  0
  -10.8935    8.3447  -25.9290 C   0  0  0  0  0  0  0  0  0  0  0  0
  -11.4318    7.0925  -26.3148 N   0  0  0  0  0  0  0  0  0  0  0  0
   -9.9366   13.6971  -23.9932 O   0  0  0  0  0  0  0  0  0  0  0  0
  -12.3379   14.6184  -22.2897 O   0  0  0  0  0  0  0  0  0  0  0  0
  -13.9058   12.9847  -22.6859 H   0  0  0  0  0  0  0  0  0  0  0  0
  -15.1040   12.8957  -24.0822 H   0  0  0  0  0  0  0  0  0  0  0  0
  -14.0754   15.0925  -24.5145 H   0  0  0  0  0  0  0  0  0  0  0  0
  -11.6511   15.4583  -24.0666 H   0  0  0  0  0  0  0  0  0  0  0  0
  -11.5343   12.4993  -23.4012 H   0  0  0  0  0  0  0  0  0  0  0  0
  -10.9545   13.5740  -26.1259 H   0  0  0  0  0  0  0  0  0  0  0  0
  -13.9894   11.6414  -26.4781 H   0  0  0  0  0  0  0  0  0  0  0  0
   -8.0657    9.6845  -24.7353 H   0  0  0  0  0  0  0  0  0  0  0  0
  -11.8316    6.8995  -27.2705 H   0  0  0  0  0  0  0  0  0  0  0  0
  -11.4297    6.3212  -25.6083 H   0  0  0  0  0  0  0  0  0  0  0  0
   -9.5210   13.7369  -24.8997 H   0  0  0  0  0  0  0  0  0  0  0  0
  -12.4765   15.5911  -22.0721 H   0  0  0  0  0  0  0  0  0  0  0  0
  1  2  1  0
  2  3  1  0
  3  4  1  0
  4  5  1  0
  5  6  1  0
  5  7  1  0
  7  8  1  0
  8  9  2  0
  9 10  1  0
 10 11  2  0
 11 12  1  0
 12 13  2  0
 13 14  1  0
 14 15  2  0
 15 16  1  0
  4 17  1  0
  3 18  1  0
  6  2  1  0
 11  7  1  0
 15 10  1  0
  1 19  1  0
  1 20  1  0
  2 21  1  0
  3 22  1  0
  4 23  1  0
  5 24  1  0
  8 25  1  0
 13 26  1  0
 16 27  1  0
 16 28  1  0
 17 29  1  0
 18 30  1  0
M  RAD  1   1   2
M  END
$$$$

     RDKit          3D

 30 32  0  0  0  0  0  0  0  0999 V2000
  -11.1853   15.7290  -23.8537 C   0  0  0  0  0  3  0  0  0  0  0  0
  -11.7076   14.3676  -23.4167 C   0  0  0  0  0  0  0  0  0  0  0  0
  -13.2052   14.3760  -23.6423 C   0  0  0  0  0  0  0  0  0  0  0  0
  -13.2944   13.4409  -24.8575 C   0  0  0  0  0  0  0  0  0  0  0  0
  -12.2179   12.4585  -24.4428 C   0  0  0  0  0  0  0  0  0  0  0  0
  -11.1730   13.3404  -24.1478 O   0  0  0  0  0  0  0  0  0  0  0  0
  -11.8967   11.4988  -25.4292 N   0  0  0  0  0  0  0  0  0  0  0  0
  -12.1560   11.5151  -26.7439 C   0  0  0  0  0  0  0  0  0  0  0  0
  -11.6755   10.4020  -27.3217 N   0  0  0  0  0  0  0  0  0  0  0  0
  -11.1042    9.6684  -26.3669 C   0  0  0  0  0  0  0  0  0  0  0  0
  -11.2402   10.3479  -25.1891 C   0  0  0  0  0  0  0  0  0  0  0  0
  -10.7278    9.7915  -24.0503 N   0  0  0  0  0  0  0  0  0  0  0  0
  -10.0977    8.6048  -24.0487 C   0  0  0  0  0  0  0  0  0  0  0  0
   -9.9792    7.9595  -25.2228 N   0  0  0  0  0  0  0  0  0  0  0  0
  -10.4517    8.4371  -26.3715 C   0  0  0  0  0  0  0  0  0  0  0  0
  -10.3354    7.7711  -27.6152 N   0  0  0  0  0  0  0  0  0  0  0  0
  -12.8677   14.1773  -25.9601 O   0  0  0  0  0  0  0  0  0  0  0  0
  -13.8116   13.7222  -22.5757 O   0  0  0  0  0  0  0  0  0  0  0  0
  -10.3097   15.5886  -24.5280 H   0  0  0  0  0  0  0  0  0  0  0  0
  -11.9415   16.2962  -24.4368 H   0  0  0  0  0  0  0  0  0  0  0  0
  -11.4843   14.2414  -22.3170 H   0  0  0  0  0  0  0  0  0  0  0  0
  -13.6158   15.3588  -23.8544 H   0  0  0  0  0  0  0  0  0  0  0  0
  -14.2776   12.9958  -24.9671 H   0  0  0  0  0  0  0  0  0  0  0  0
  -12.5317   12.0239  -23.4678 H   0  0  0  0  0  0  0  0  0  0  0  0
  -12.6771   12.2890  -27.3226 H   0  0  0  0  0  0  0  0  0  0  0  0
   -9.6955    8.1798  -23.1223 H   0  0  0  0  0  0  0  0  0  0  0  0
  -11.1564    7.3487  -28.0863 H   0  0  0  0  0  0  0  0  0  0  0  0
   -9.3978    7.7115  -28.0558 H   0  0  0  0  0  0  0  0  0  0  0  0
  -11.8767   14.1947  -26.0136 H   0  0  0  0  0  0  0  0  0  0  0  0
  -14.4234   13.0115  -22.9191 H   0  0  0  0  0  0  0  0  0  0  0  0
  1  2  1  0
  2  3  1  0
  3  4  1  0
  4  5  1  0
  5  6  1  0
  5  7  1  0
  7  8  1  0
  8  9  2  0
  9 10  1  0
 10 11  2  0
 11 12  1  0
 12 13  2  0
 13 14  1  0
 14 15  2  0
 15 16  1  0
  4 17  1  0
  3 18  1  0
  6  2  1  0
 11  7  1  0
 15 10  1  0
  1 19  1  0
  1 20  1  0
  2 21  1  0
  3 22  1  0
  4 23  1  0
  5 24  1  0
  8 25  1  0
 13 26  1  0
 16 27  1  0
 16 28  1  0
 17 29  1  0
 18 30  1  0
M  RAD  1   1   2
M  END
$$$$

     RDKit          3D

 30 32  0  0  0  0  0  0  0  0999 V2000
  -14.3014   14.1788  -22.5072 C   0  0  0  0  0  3  0  0  0  0  0  0
  -12.9775   13.8440  -23.0910 C   0  0  0  0  0  0  0  0  0  0  0  0
  -12.6619   14.6924  -24.3290 C   0  0  0  0  0  0  0  0  0  0  0  0
  -11.4292   13.9560  -24.8111 C   0  0  0  0  0  0  0  0  0  0  0  0
  -11.6906   12.5672  -24.3302 C   0  0  0  0  0  0  0  0  0  0  0  0
  -12.9348   12.5736  -23.6773 O   0  0  0  0  0  0  0  0  0  0  0  0
  -11.6166   11.5633  -25.3403 N   0  0  0  0  0  0  0  0  0  0  0  0
  -12.0598   11.5885  -26.5937 C   0  0  0  0  0  0  0  0  0  0  0  0
  -11.7968   10.4403  -27.2318 N   0  0  0  0  0  0  0  0  0  0  0  0
  -11.1605    9.6548  -26.3460 C   0  0  0  0  0  0  0  0  0  0  0  0
  -11.0499   10.3591  -25.1665 C   0  0  0  0  0  0  0  0  0  0  0  0
  -10.4471    9.7772  -24.1295 N   0  0  0  0  0  0  0  0  0  0  0  0
   -9.9442    8.5322  -24.1904 C   0  0  0  0  0  0  0  0  0  0  0  0
  -10.0524    7.8343  -25.3549 N   0  0  0  0  0  0  0  0  0  0  0  0
  -10.6525    8.3746  -26.4350 C   0  0  0  0  0  0  0  0  0  0  0  0
  -10.7431    7.6088  -27.6313 N   0  0  0  0  0  0  0  0  0  0  0  0
  -11.1996   14.0781  -26.1511 O   0  0  0  0  0  0  0  0  0  0  0  0
  -12.4092   15.9849  -23.9398 O   0  0  0  0  0  0  0  0  0  0  0  0
  -15.0493   14.2709  -23.3078 H   0  0  0  0  0  0  0  0  0  0  0  0
  -14.5478   13.4624  -21.7279 H   0  0  0  0  0  0  0  0  0  0  0  0
  -12.1355   13.9267  -22.4056 H   0  0  0  0  0  0  0  0  0  0  0  0
  -13.5049   14.6044  -25.0639 H   0  0  0  0  0  0  0  0  0  0  0  0
  -10.5618   14.4493  -24.2812 H   0  0  0  0  0  0  0  0  0  0  0  0
  -10.9435   12.3673  -23.5059 H   0  0  0  0  0  0  0  0  0  0  0  0
  -12.5683   12.4154  -27.0587 H   0  0  0  0  0  0  0  0  0  0  0  0
   -9.4582    8.0935  -23.3169 H   0  0  0  0  0  0  0  0  0  0  0  0
  -10.3889    7.9692  -28.5436 H   0  0  0  0  0  0  0  0  0  0  0  0
  -11.1694    6.6729  -27.5987 H   0  0  0  0  0  0  0  0  0  0  0  0
  -10.4248   14.6412  -26.3760 H   0  0  0  0  0  0  0  0  0  0  0  0
  -11.8808   16.4137  -24.6776 H   0  0  0  0  0  0  0  0  0  0  0  0
  1  2  1  0
  2  3  1  0
  3  4  1  0
  4  5  1  0
  5  6  1  0
  5  7  1  0
  7  8  1  0
  8  9  2  0
  9 10  1  0
 10 11  2  0
 11 12  1  0
 12 13  2  0
 13 14  1  0
 14 15  2  0
 15 16  1  0
  4 17  1  0
  3 18  1  0
  6  2  1  0
 11  7  1  0
 15 10  1  0
  1 19  1  0
  1 20  1  0
  2 21  1  0
  3 22  1  0
  4 23  1  0
  5 24  1  0
  8 25  1  0
 13 26  1  0
 16 27  1  0
 16 28  1  0
 17 29  1  0
 18 30  1  0
M  RAD  1   1   2
M  END
$$$$

     RDKit          3D

 30 32  0  0  0  0  0  0  0  0999 V2000
  -12.8223   13.6846  -21.7000 C   0  0  0  0  0  3  0  0  0  0  0  0
  -12.8386   13.3922  -23.1637 C   0  0  0  0  0  0  0  0  0  0  0  0
  -12.6434   14.6280  -24.0196 C   0  0  0  0  0  0  0  0  0  0  0  0
  -12.2209   13.9437  -25.3291 C   0  0  0  0  0  0  0  0  0  0  0  0
  -11.3362   12.8582  -24.7327 C   0  0  0  0  0  0  0  0  0  0  0  0
  -11.9357   12.4507  -23.5713 O   0  0  0  0  0  0  0  0  0  0  0  0
  -11.1456   11.7566  -25.6522 N   0  0  0  0  0  0  0  0  0  0  0  0
  -10.9651   11.8267  -26.9633 C   0  0  0  0  0  0  0  0  0  0  0  0
  -10.8303   10.5695  -27.4241 N   0  0  0  0  0  0  0  0  0  0  0  0
  -10.9262    9.7089  -26.4009 C   0  0  0  0  0  0  0  0  0  0  0  0
  -11.1259   10.4708  -25.2827 C   0  0  0  0  0  0  0  0  0  0  0  0
  -11.2651    9.8997  -24.0664 N   0  0  0  0  0  0  0  0  0  0  0  0
  -11.2080    8.5643  -23.9432 C   0  0  0  0  0  0  0  0  0  0  0  0
  -11.0129    7.7856  -25.0226 N   0  0  0  0  0  0  0  0  0  0  0  0
  -10.8716    8.3405  -26.2469 C   0  0  0  0  0  0  0  0  0  0  0  0
  -10.6635    7.5605  -27.4183 N   0  0  0  0  0  0  0  0  0  0  0  0
  -11.5271   14.8009  -26.1535 O   0  0  0  0  0  0  0  0  0  0  0  0
  -13.7888   15.3665  -24.1658 O   0  0  0  0  0  0  0  0  0  0  0  0
  -11.9724   14.2695  -21.3577 H   0  0  0  0  0  0  0  0  0  0  0  0
  -13.7948   13.9754  -21.2768 H   0  0  0  0  0  0  0  0  0  0  0  0
  -13.8682   13.0036  -23.4135 H   0  0  0  0  0  0  0  0  0  0  0  0
  -11.7673   15.2229  -23.7069 H   0  0  0  0  0  0  0  0  0  0  0  0
  -13.0874   13.4590  -25.7940 H   0  0  0  0  0  0  0  0  0  0  0  0
  -10.3364   13.2752  -24.4920 H   0  0  0  0  0  0  0  0  0  0  0  0
  -10.9314   12.7241  -27.5588 H   0  0  0  0  0  0  0  0  0  0  0  0
  -11.3254    8.1578  -22.9470 H   0  0  0  0  0  0  0  0  0  0  0  0
   -9.9757    7.9222  -28.1138 H   0  0  0  0  0  0  0  0  0  0  0  0
  -11.2021    6.6761  -27.5232 H   0  0  0  0  0  0  0  0  0  0  0  0
  -11.0515   15.4586  -25.5807 H   0  0  0  0  0  0  0  0  0  0  0  0
  -13.5245   16.2838  -24.4680 H   0  0  0  0  0  0  0  0  0  0  0  0
  1  2  1  0
  2  3  1  0
  3  4  1  0
  4  5  1  0
  5  6  1  0
  5  7  1  0
  7  8  1  0
  8  9  2  0
  9 10  1  0
 10 11  2  0
 11 12  1  0
 12 13  2  0
 13 14  1  0
 14 15  2  0
 15 16  1  0
  4 17  1  0
  3 18  1  0
  6  2  1  0
 11  7  1  0
 15 10  1  0
  1 19  1  0
  1 20  1  0
  2 21  1  0
  3 22  1  0
  4 23  1  0
  5 24  1  0
  8 25  1  0
 13 26  1  0
 16 27  1  0
 16 28  1  0
 17 29  1  0
 18 30  1  0
M  RAD  1   1   2
M  END
$$$$

     RDKit          3D

 30 32  0  0  0  0  0  0  0  0999 V2000
  -12.5216   13.9883  -21.7092 C   0  0  0  0  0  3  0  0  0  0  0  0
  -12.9562   13.4704  -23.0412 C   0  0  0  0  0  0  0  0  0  0  0  0
  -13.1073   14.5312  -24.0882 C   0  0  0  0  0  0  0  0  0  0  0  0
  -12.7794   13.7339  -25.3366 C   0  0  0  0  0  0  0  0  0  0  0  0
  -11.6825   12.8431  -24.7692 C   0  0  0  0  0  0  0  0  0  0  0  0
  -12.1590   12.4724  -23.5395 O   0  0  0  0  0  0  0  0  0  0  0  0
  -11.3677   11.7463  -25.6386 N   0  0  0  0  0  0  0  0  0  0  0  0
  -11.2173   11.7788  -26.9636 C   0  0  0  0  0  0  0  0  0  0  0  0
  -10.9241   10.5555  -27.4444 N   0  0  0  0  0  0  0  0  0  0  0  0
  -10.8862    9.7178  -26.3965 C   0  0  0  0  0  0  0  0  0  0  0  0
  -11.1648   10.4649  -25.2617 C   0  0  0  0  0  0  0  0  0  0  0  0
  -11.1940    9.8734  -24.0491 N   0  0  0  0  0  0  0  0  0  0  0  0
  -10.9540    8.5572  -23.9283 C   0  0  0  0  0  0  0  0  0  0  0  0
  -10.6854    7.8465  -25.0385 N   0  0  0  0  0  0  0  0  0  0  0  0
  -10.6396    8.3630  -26.2694 C   0  0  0  0  0  0  0  0  0  0  0  0
  -10.3540    7.5999  -27.4371 N   0  0  0  0  0  0  0  0  0  0  0  0
  -12.3584   14.5107  -26.3800 O   0  0  0  0  0  0  0  0  0  0  0  0
  -12.1755   15.5548  -23.9647 O   0  0  0  0  0  0  0  0  0  0  0  0
  -13.2639   13.9263  -20.9200 H   0  0  0  0  0  0  0  0  0  0  0  0
  -11.4918   13.7858  -21.4384 H   0  0  0  0  0  0  0  0  0  0  0  0
  -13.9824   13.0211  -22.8935 H   0  0  0  0  0  0  0  0  0  0  0  0
  -14.1279   14.9611  -24.1296 H   0  0  0  0  0  0  0  0  0  0  0  0
  -13.6757   13.1160  -25.6245 H   0  0  0  0  0  0  0  0  0  0  0  0
  -10.8039   13.5141  -24.6047 H   0  0  0  0  0  0  0  0  0  0  0  0
  -11.3299   12.7109  -27.5336 H   0  0  0  0  0  0  0  0  0  0  0  0
  -10.9767    8.0703  -22.9414 H   0  0  0  0  0  0  0  0  0  0  0  0
  -11.1685    7.3205  -28.0244 H   0  0  0  0  0  0  0  0  0  0  0  0
   -9.3941    7.3154  -27.7243 H   0  0  0  0  0  0  0  0  0  0  0  0
  -13.1017   14.6322  -27.0525 H   0  0  0  0  0  0  0  0  0  0  0  0
  -11.5172   15.3821  -23.2284 H   0  0  0  0  0  0  0  0  0  0  0  0
  1  2  1  0
  2  3  1  0
  3  4  1  0
  4  5  1  0
  5  6  1  0
  5  7  1  0
  7  8  1  0
  8  9  2  0
  9 10  1  0
 10 11  2  0
 11 12  1  0
 12 13  2  0
 13 14  1  0
 14 15  2  0
 15 16  1  0
  4 17  1  0
  3 18  1  0
  6  2  1  0
 11  7  1  0
 15 10  1  0
  1 19  1  0
  1 20  1  0
  2 21  1  0
  3 22  1  0
  4 23  1  0
  5 24  1  0
  8 25  1  0
 13 26  1  0
 16 27  1  0
 16 28  1  0
 17 29  1  0
 18 30  1  0
M  RAD  1   1   2
M  END
$$$$

     RDKit          3D

 30 32  0  0  0  0  0  0  0  0999 V2000
  -14.2422   15.0556  -24.8164 C   0  0  0  0  0  3  0  0  0  0  0  0
  -13.1625   14.0245  -24.7942 C   0  0  0  0  0  0  0  0  0  0  0  0
  -11.8742   14.6045  -24.1943 C   0  0  0  0  0  0  0  0  0  0  0  0
  -11.1039   13.3009  -23.9455 C   0  0  0  0  0  0  0  0  0  0  0  0
  -12.2152   12.3174  -23.7576 C   0  0  0  0  0  0  0  0  0  0  0  0
  -13.4149   12.9908  -23.8857 O   0  0  0  0  0  0  0  0  0  0  0  0
  -12.1744   11.2461  -24.7388 N   0  0  0  0  0  0  0  0  0  0  0  0
  -13.1945   10.8146  -25.4976 C   0  0  0  0  0  0  0  0  0  0  0  0
  -12.7903    9.8075  -26.2915 N   0  0  0  0  0  0  0  0  0  0  0  0
  -11.5004    9.5609  -26.0682 C   0  0  0  0  0  0  0  0  0  0  0  0
  -11.1187   10.4684  -25.0910 C   0  0  0  0  0  0  0  0  0  0  0  0
   -9.8688   10.4595  -24.6609 N   0  0  0  0  0  0  0  0  0  0  0  0
   -8.9645    9.5957  -25.1462 C   0  0  0  0  0  0  0  0  0  0  0  0
   -9.3546    8.7250  -26.0921 N   0  0  0  0  0  0  0  0  0  0  0  0
  -10.5981    8.6520  -26.5962 C   0  0  0  0  0  0  0  0  0  0  0  0
  -10.9723    7.7151  -27.5980 N   0  0  0  0  0  0  0  0  0  0  0  0
  -10.3647   13.0671  -25.1030 O   0  0  0  0  0  0  0  0  0  0  0  0
  -12.2127   15.2024  -22.9789 O   0  0  0  0  0  0  0  0  0  0  0  0
  -13.8118   16.0249  -24.4907 H   0  0  0  0  0  0  0  0  0  0  0  0
  -14.5640   15.1949  -25.8712 H   0  0  0  0  0  0  0  0  0  0  0  0
  -12.9603   13.5890  -25.7923 H   0  0  0  0  0  0  0  0  0  0  0  0
  -11.3562   15.2685  -24.8854 H   0  0  0  0  0  0  0  0  0  0  0  0
  -10.4599   13.4127  -23.0591 H   0  0  0  0  0  0  0  0  0  0  0  0
  -12.1493   11.9305  -22.7200 H   0  0  0  0  0  0  0  0  0  0  0  0
  -14.1981   11.2515  -25.4437 H   0  0  0  0  0  0  0  0  0  0  0  0
   -7.9226    9.6016  -24.7752 H   0  0  0  0  0  0  0  0  0  0  0  0
  -10.5939    7.7200  -28.5711 H   0  0  0  0  0  0  0  0  0  0  0  0
  -11.6732    6.9400  -27.4094 H   0  0  0  0  0  0  0  0  0  0  0  0
   -9.9353   13.9220  -25.3448 H   0  0  0  0  0  0  0  0  0  0  0  0
  -12.2061   14.5179  -22.2412 H   0  0  0  0  0  0  0  0  0  0  0  0
  1  2  1  0
  2  3  1  0
  3  4  1  0
  4  5  1  0
  5  6  1  0
  5  7  1  0
  7  8  1  0
  8  9  2  0
  9 10  1  0
 10 11  2  0
 11 12  1  0
 12 13  2  0
 13 14  1  0
 14 15  2  0
 15 16  1  0
  4 17  1  0
  3 18  1  0
  6  2  1  0
 11  7  1  0
 15 10  1  0
  1 19  1  0
  1 20  1  0
  2 21  1  0
  3 22  1  0
  4 23  1  0
  5 24  1  0
  8 25  1  0
 13 26  1  0
 16 27  1  0
 16 28  1  0
 17 29  1  0
 18 30  1  0
M  RAD  1   1   2
M  END
$$$$

     RDKit          3D

 30 32  0  0  0  0  0  0  0  0999 V2000
  -11.2267   12.9595  -22.2894 C   0  0  0  0  0  3  0  0  0  0  0  0
  -12.4547   13.4323  -23.0232 C   0  0  0  0  0  0  0  0  0  0  0  0
  -12.1661   14.5531  -23.9574 C   0  0  0  0  0  0  0  0  0  0  0  0
  -12.3063   13.9329  -25.3105 C   0  0  0  0  0  0  0  0  0  0  0  0
  -12.9710   12.6210  -25.0430 C   0  0  0  0  0  0  0  0  0  0  0  0
  -13.0016   12.3899  -23.7050 O   0  0  0  0  0  0  0  0  0  0  0  0
  -12.3175   11.5718  -25.8032 N   0  0  0  0  0  0  0  0  0  0  0  0
  -12.3446   11.4655  -27.1408 C   0  0  0  0  0  0  0  0  0  0  0  0
  -11.6215   10.3598  -27.4764 N   0  0  0  0  0  0  0  0  0  0  0  0
  -11.1545    9.7930  -26.3452 C   0  0  0  0  0  0  0  0  0  0  0  0
  -11.5913   10.5552  -25.2806 C   0  0  0  0  0  0  0  0  0  0  0  0
  -11.2398   10.1698  -24.0539 N   0  0  0  0  0  0  0  0  0  0  0  0
  -10.4893    9.0897  -23.7835 C   0  0  0  0  0  0  0  0  0  0  0  0
  -10.0656    8.3497  -24.8228 N   0  0  0  0  0  0  0  0  0  0  0  0
  -10.3877    8.6866  -26.0969 C   0  0  0  0  0  0  0  0  0  0  0  0
   -9.9146    7.8713  -27.1553 N   0  0  0  0  0  0  0  0  0  0  0  0
  -13.0138   14.7457  -26.1884 O   0  0  0  0  0  0  0  0  0  0  0  0
  -10.8605   15.0612  -23.7803 O   0  0  0  0  0  0  0  0  0  0  0  0
  -10.8356   13.6869  -21.5758 H   0  0  0  0  0  0  0  0  0  0  0  0
  -11.4748   12.0198  -21.7615 H   0  0  0  0  0  0  0  0  0  0  0  0
  -13.1663   13.8207  -22.2412 H   0  0  0  0  0  0  0  0  0  0  0  0
  -12.8788   15.3991  -23.8737 H   0  0  0  0  0  0  0  0  0  0  0  0
  -11.2939   13.7343  -25.7429 H   0  0  0  0  0  0  0  0  0  0  0  0
  -14.0130   12.6893  -25.4536 H   0  0  0  0  0  0  0  0  0  0  0  0
  -12.8449   12.1277  -27.8493 H   0  0  0  0  0  0  0  0  0  0  0  0
  -10.2261    8.8135  -22.7505 H   0  0  0  0  0  0  0  0  0  0  0  0
   -9.0129    7.3427  -27.0592 H   0  0  0  0  0  0  0  0  0  0  0  0
  -10.4908    7.8176  -28.0237 H   0  0  0  0  0  0  0  0  0  0  0  0
  -13.9241   14.3663  -26.2794 H   0  0  0  0  0  0  0  0  0  0  0  0
  -10.8981   16.0062  -23.4851 H   0  0  0  0  0  0  0  0  0  0  0  0
  1  2  1  0
  2  3  1  0
  3  4  1  0
  4  5  1  0
  5  6  1  0
  5  7  1  0
  7  8  1  0
  8  9  2  0
  9 10  1  0
 10 11  2  0
 11 12  1  0
 12 13  2  0
 13 14  1  0
 14 15  2  0
 15 16  1  0
  4 17  1  0
  3 18  1  0
  6  2  1  0
 11  7  1  0
 15 10  1  0
  1 19  1  0
  1 20  1  0
  2 21  1  0
  3 22  1  0
  4 23  1  0
  5 24  1  0
  8 25  1  0
 13 26  1  0
 16 27  1  0
 16 28  1  0
 17 29  1  0
 18 30  1  0
M  RAD  1   1   2
M  END
$$$$

     RDKit          3D

 30 32  0  0  0  0  0  0  0  0999 V2000
  -14.0590   15.3147  -24.7378 C   0  0  0  0  0  3  0  0  0  0  0  0
  -13.0132   14.2466  -24.6752 C   0  0  0  0  0  0  0  0  0  0  0  0
  -12.1527   14.3619  -23.4087 C   0  0  0  0  0  0  0  0  0  0  0  0
  -11.4143   13.0180  -23.5951 C   0  0  0  0  0  0  0  0  0  0  0  0
  -12.5722   12.1666  -23.9591 C   0  0  0  0  0  0  0  0  0  0  0  0
  -13.5623   12.9770  -24.5027 O   0  0  0  0  0  0  0  0  0  0  0  0
  -12.3191   11.0802  -24.8376 N   0  0  0  0  0  0  0  0  0  0  0  0
  -13.3341   10.4727  -25.5097 C   0  0  0  0  0  0  0  0  0  0  0  0
  -12.8300    9.5032  -26.2499 N   0  0  0  0  0  0  0  0  0  0  0  0
  -11.4887    9.4677  -26.0701 C   0  0  0  0  0  0  0  0  0  0  0  0
  -11.1907   10.4603  -25.1848 C   0  0  0  0  0  0  0  0  0  0  0  0
   -9.9278   10.6946  -24.7892 N   0  0  0  0  0  0  0  0  0  0  0  0
   -8.9377    9.9064  -25.3001 C   0  0  0  0  0  0  0  0  0  0  0  0
   -9.2280    8.9236  -26.1759 N   0  0  0  0  0  0  0  0  0  0  0  0
  -10.4913    8.6705  -26.5875 C   0  0  0  0  0  0  0  0  0  0  0  0
  -10.7992    7.6439  -27.5030 N   0  0  0  0  0  0  0  0  0  0  0  0
  -10.5537   13.2932  -24.6615 O   0  0  0  0  0  0  0  0  0  0  0  0
  -11.2529   15.4070  -23.5081 O   0  0  0  0  0  0  0  0  0  0  0  0
  -14.9184   14.8887  -25.3262 H   0  0  0  0  0  0  0  0  0  0  0  0
  -13.6575   16.1395  -25.3728 H   0  0  0  0  0  0  0  0  0  0  0  0
  -12.3627   14.2063  -25.5456 H   0  0  0  0  0  0  0  0  0  0  0  0
  -12.7688   14.3662  -22.5149 H   0  0  0  0  0  0  0  0  0  0  0  0
  -10.8979   12.7391  -22.6749 H   0  0  0  0  0  0  0  0  0  0  0  0
  -12.9984   11.7456  -23.0112 H   0  0  0  0  0  0  0  0  0  0  0  0
  -14.3990   10.7086  -25.4769 H   0  0  0  0  0  0  0  0  0  0  0  0
   -7.9241   10.0636  -25.0086 H   0  0  0  0  0  0  0  0  0  0  0  0
  -11.5547    7.7600  -28.1952 H   0  0  0  0  0  0  0  0  0  0  0  0
  -10.2502    6.7601  -27.4715 H   0  0  0  0  0  0  0  0  0  0  0  0
   -9.7950   13.8029  -24.2685 H   0  0  0  0  0  0  0  0  0  0  0  0
  -11.5849   16.1797  -22.9724 H   0  0  0  0  0  0  0  0  0  0  0  0
  1  2  1  0
  2  3  1  0
  3  4  1  0
  4  5  1  0
  5  6  1  0
  5  7  1  0
  7  8  1  0
  8  9  2  0
  9 10  1  0
 10 11  2  0
 11 12  1  0
 12 13  2  0
 13 14  1  0
 14 15  2  0
 15 16  1  0
  4 17  1  0
  3 18  1  0
  6  2  1  0
 11  7  1  0
 15 10  1  0
  1 19  1  0
  1 20  1  0
  2 21  1  0
  3 22  1  0
  4 23  1  0
  5 24  1  0
  8 25  1  0
 13 26  1  0
 16 27  1  0
 16 28  1  0
 17 29  1  0
 18 30  1  0
M  RAD  1   1   2
M  END
$$$$

     RDKit          3D

 30 32  0  0  0  0  0  0  0  0999 V2000
  -14.2602   14.2143  -22.7598 C   0  0  0  0  0  3  0  0  0  0  0  0
  -13.3154   14.3819  -23.9428 C   0  0  0  0  0  0  0  0  0  0  0  0
  -11.8781   14.4676  -23.5018 C   0  0  0  0  0  0  0  0  0  0  0  0
  -11.2595   13.2695  -24.2204 C   0  0  0  0  0  0  0  0  0  0  0  0
  -12.4880   12.3587  -24.2945 C   0  0  0  0  0  0  0  0  0  0  0  0
  -13.4378   13.2724  -24.7499 O   0  0  0  0  0  0  0  0  0  0  0  0
  -12.2916   11.2922  -25.2430 N   0  0  0  0  0  0  0  0  0  0  0  0
  -13.0539   10.9602  -26.2914 C   0  0  0  0  0  0  0  0  0  0  0  0
  -12.4800    9.9106  -26.8767 N   0  0  0  0  0  0  0  0  0  0  0  0
  -11.3523    9.5410  -26.2362 C   0  0  0  0  0  0  0  0  0  0  0  0
  -11.2550   10.4412  -25.1949 C   0  0  0  0  0  0  0  0  0  0  0  0
  -10.1843   10.2888  -24.3767 N   0  0  0  0  0  0  0  0  0  0  0  0
   -9.2729    9.3212  -24.5665 C   0  0  0  0  0  0  0  0  0  0  0  0
   -9.4000    8.4653  -25.5881 N   0  0  0  0  0  0  0  0  0  0  0  0
  -10.4167    8.5452  -26.4335 C   0  0  0  0  0  0  0  0  0  0  0  0
  -10.5771    7.6403  -27.5374 N   0  0  0  0  0  0  0  0  0  0  0  0
  -10.9492   13.6107  -25.5275 O   0  0  0  0  0  0  0  0  0  0  0  0
  -11.2551   15.6268  -23.9151 O   0  0  0  0  0  0  0  0  0  0  0  0
  -13.8890   14.7263  -21.8553 H   0  0  0  0  0  0  0  0  0  0  0  0
  -14.4456   13.1389  -22.6127 H   0  0  0  0  0  0  0  0  0  0  0  0
  -13.6450   15.3246  -24.4563 H   0  0  0  0  0  0  0  0  0  0  0  0
  -11.8464   14.3092  -22.4123 H   0  0  0  0  0  0  0  0  0  0  0  0
  -10.4458   12.8146  -23.6610 H   0  0  0  0  0  0  0  0  0  0  0  0
  -12.7042   12.0153  -23.2839 H   0  0  0  0  0  0  0  0  0  0  0  0
  -13.9750   11.4494  -26.6165 H   0  0  0  0  0  0  0  0  0  0  0  0
   -8.4445    9.2697  -23.8632 H   0  0  0  0  0  0  0  0  0  0  0  0
  -11.4971    7.4662  -27.9816 H   0  0  0  0  0  0  0  0  0  0  0  0
   -9.7547    7.1409  -27.9092 H   0  0  0  0  0  0  0  0  0  0  0  0
  -10.8357   14.5867  -25.6590 H   0  0  0  0  0  0  0  0  0  0  0  0
  -10.2871   15.5319  -23.7149 H   0  0  0  0  0  0  0  0  0  0  0  0
  1  2  1  0
  2  3  1  0
  3  4  1  0
  4  5  1  0
  5  6  1  0
  5  7  1  0
  7  8  1  0
  8  9  2  0
  9 10  1  0
 10 11  2  0
 11 12  1  0
 12 13  2  0
 13 14  1  0
 14 15  2  0
 15 16  1  0
  4 17  1  0
  3 18  1  0
  6  2  1  0
 11  7  1  0
 15 10  1  0
  1 19  1  0
  1 20  1  0
  2 21  1  0
  3 22  1  0
  4 23  1  0
  5 24  1  0
  8 25  1  0
 13 26  1  0
 16 27  1  0
 16 28  1  0
 17 29  1  0
 18 30  1  0
M  RAD  1   1   2
M  END
$$$$

     RDKit          3D

 30 32  0  0  0  0  0  0  0  0999 V2000
  -12.6435   15.3176  -25.2032 C   0  0  0  0  0  3  0  0  0  0  0  0
  -11.4382   14.6494  -24.6033 C   0  0  0  0  0  0  0  0  0  0  0  0
  -11.7539   14.1192  -23.2200 C   0  0  0  0  0  0  0  0  0  0  0  0
  -12.4791   12.8305  -23.5272 C   0  0  0  0  0  0  0  0  0  0  0  0
  -12.3699   12.7513  -25.0292 C   0  0  0  0  0  0  0  0  0  0  0  0
  -11.1850   13.4594  -25.3031 O   0  0  0  0  0  0  0  0  0  0  0  0
  -12.2766   11.4035  -25.5111 N   0  0  0  0  0  0  0  0  0  0  0  0
  -13.3048   10.7034  -26.0234 C   0  0  0  0  0  0  0  0  0  0  0  0
  -12.8567    9.4789  -26.3728 N   0  0  0  0  0  0  0  0  0  0  0  0
  -11.5414    9.4432  -26.0661 C   0  0  0  0  0  0  0  0  0  0  0  0
  -11.1714   10.6498  -25.5243 C   0  0  0  0  0  0  0  0  0  0  0  0
   -9.8890   10.7950  -25.1579 N   0  0  0  0  0  0  0  0  0  0  0  0
   -8.9625    9.8287  -25.2942 C   0  0  0  0  0  0  0  0  0  0  0  0
   -9.3135    8.6392  -25.8249 N   0  0  0  0  0  0  0  0  0  0  0  0
  -10.5900    8.4563  -26.2040 C   0  0  0  0  0  0  0  0  0  0  0  0
  -10.9994    7.2168  -26.7677 N   0  0  0  0  0  0  0  0  0  0  0  0
  -13.8079   12.8531  -23.1063 O   0  0  0  0  0  0  0  0  0  0  0  0
  -12.5441   15.0127  -22.5175 O   0  0  0  0  0  0  0  0  0  0  0  0
  -12.6484   15.1524  -26.3171 H   0  0  0  0  0  0  0  0  0  0  0  0
  -12.5929   16.4136  -25.0547 H   0  0  0  0  0  0  0  0  0  0  0  0
  -10.5522   15.2998  -24.5537 H   0  0  0  0  0  0  0  0  0  0  0  0
  -10.7628   13.9387  -22.7247 H   0  0  0  0  0  0  0  0  0  0  0  0
  -11.9871   11.9597  -23.0327 H   0  0  0  0  0  0  0  0  0  0  0  0
  -13.1913   13.3371  -25.4729 H   0  0  0  0  0  0  0  0  0  0  0  0
  -14.3346   11.0034  -26.1616 H   0  0  0  0  0  0  0  0  0  0  0  0
   -7.9224    9.9795  -24.9846 H   0  0  0  0  0  0  0  0  0  0  0  0
  -11.7908    7.1825  -27.4633 H   0  0  0  0  0  0  0  0  0  0  0  0
  -10.5635    6.3083  -26.5391 H   0  0  0  0  0  0  0  0  0  0  0  0
  -14.2656   13.6733  -23.4136 H   0  0  0  0  0  0  0  0  0  0  0  0
  -13.1609   14.5425  -21.8946 H   0  0  0  0  0  0  0  0  0  0  0  0
  1  2  1  0
  2  3  1  0
  3  4  1  0
  4  5  1  0
  5  6  1  0
  5  7  1  0
  7  8  1  0
  8  9  2  0
  9 10  1  0
 10 11  2  0
 11 12  1  0
 12 13  2  0
 13 14  1  0
 14 15  2  0
 15 16  1  0
  4 17  1  0
  3 18  1  0
  6  2  1  0
 11  7  1  0
 15 10  1  0
  1 19  1  0
  1 20  1  0
  2 21  1  0
  3 22  1  0
  4 23  1  0
  5 24  1  0
  8 25  1  0
 13 26  1  0
 16 27  1  0
 16 28  1  0
 17 29  1  0
 18 30  1  0
M  RAD  1   1   2
M  END
$$$$

     RDKit          3D

 30 32  0  0  0  0  0  0  0  0999 V2000
  -11.6840   13.5690  -21.7148 C   0  0  0  0  0  3  0  0  0  0  0  0
  -12.5626   13.5763  -22.9584 C   0  0  0  0  0  0  0  0  0  0  0  0
  -12.1893   14.6966  -23.8664 C   0  0  0  0  0  0  0  0  0  0  0  0
  -11.7145   13.9582  -25.1073 C   0  0  0  0  0  0  0  0  0  0  0  0
  -12.5319   12.6942  -25.0069 C   0  0  0  0  0  0  0  0  0  0  0  0
  -12.4349   12.3858  -23.6653 O   0  0  0  0  0  0  0  0  0  0  0  0
  -11.9506   11.6477  -25.8105 N   0  0  0  0  0  0  0  0  0  0  0  0
  -11.7364   11.6163  -27.1310 C   0  0  0  0  0  0  0  0  0  0  0  0
  -11.1674   10.4437  -27.4893 N   0  0  0  0  0  0  0  0  0  0  0  0
  -11.0055    9.6955  -26.3924 C   0  0  0  0  0  0  0  0  0  0  0  0
  -11.5029   10.4666  -25.3447 C   0  0  0  0  0  0  0  0  0  0  0  0
  -11.4615    9.9406  -24.0956 N   0  0  0  0  0  0  0  0  0  0  0  0
  -10.9546    8.7128  -23.8849 C   0  0  0  0  0  0  0  0  0  0  0  0
  -10.4730    7.9731  -24.9187 N   0  0  0  0  0  0  0  0  0  0  0  0
  -10.4854    8.4368  -26.1784 C   0  0  0  0  0  0  0  0  0  0  0  0
   -9.9922    7.6916  -27.2734 N   0  0  0  0  0  0  0  0  0  0  0  0
  -11.9514   14.6607  -26.2631 O   0  0  0  0  0  0  0  0  0  0  0  0
  -13.3288   15.4424  -24.1549 O   0  0  0  0  0  0  0  0  0  0  0  0
  -11.5775   14.6450  -21.4102 H   0  0  0  0  0  0  0  0  0  0  0  0
  -12.2600   13.0885  -20.8873 H   0  0  0  0  0  0  0  0  0  0  0  0
  -13.6398   13.6213  -22.6315 H   0  0  0  0  0  0  0  0  0  0  0  0
  -11.3982   15.3601  -23.4771 H   0  0  0  0  0  0  0  0  0  0  0  0
  -10.6465   13.7215  -24.9534 H   0  0  0  0  0  0  0  0  0  0  0  0
  -13.5859   12.9112  -25.2682 H   0  0  0  0  0  0  0  0  0  0  0  0
  -11.9782   12.4020  -27.8107 H   0  0  0  0  0  0  0  0  0  0  0  0
  -10.9385    8.3221  -22.8607 H   0  0  0  0  0  0  0  0  0  0  0  0
  -10.3633    6.7462  -27.4889 H   0  0  0  0  0  0  0  0  0  0  0  0
   -9.2476    8.0681  -27.8904 H   0  0  0  0  0  0  0  0  0  0  0  0
  -11.1778   15.2703  -26.4059 H   0  0  0  0  0  0  0  0  0  0  0  0
  -14.1270   14.8759  -24.1672 H   0  0  0  0  0  0  0  0  0  0  0  0
  1  2  1  0
  2  3  1  0
  3  4  1  0
  4  5  1  0
  5  6  1  0
  5  7  1  0
  7  8  1  0
  8  9  2  0
  9 10  1  0
 10 11  2  0
 11 12  1  0
 12 13  2  0
 13 14  1  0
 14 15  2  0
 15 16  1  0
  4 17  1  0
  3 18  1  0
  6  2  1  0
 11  7  1  0
 15 10  1  0
  1 19  1  0
  1 20  1  0
  2 21  1  0
  3 22  1  0
  4 23  1  0
  5 24  1  0
  8 25  1  0
 13 26  1  0
 16 27  1  0
 16 28  1  0
 17 29  1  0
 18 30  1  0
M  RAD  1   1   2
M  END
$$$$

     RDKit          3D

 30 32  0  0  0  0  0  0  0  0999 V2000
  -14.2315   15.1922  -23.7570 C   0  0  0  0  0  3  0  0  0  0  0  0
  -13.3049   14.2428  -24.5040 C   0  0  0  0  0  0  0  0  0  0  0  0
  -11.8662   14.5687  -24.2317 C   0  0  0  0  0  0  0  0  0  0  0  0
  -11.2362   13.1912  -24.1924 C   0  0  0  0  0  0  0  0  0  0  0  0
  -12.3882   12.2739  -23.9649 C   0  0  0  0  0  0  0  0  0  0  0  0
  -13.5563   12.9712  -24.0623 O   0  0  0  0  0  0  0  0  0  0  0  0
  -12.3033   11.2177  -24.9780 N   0  0  0  0  0  0  0  0  0  0  0  0
  -13.2034   10.8201  -25.8659 C   0  0  0  0  0  0  0  0  0  0  0  0
  -12.6655    9.8083  -26.5882 N   0  0  0  0  0  0  0  0  0  0  0  0
  -11.4162    9.5658  -26.1526 C   0  0  0  0  0  0  0  0  0  0  0  0
  -11.1969   10.4663  -25.1303 C   0  0  0  0  0  0  0  0  0  0  0  0
  -10.0029   10.4403  -24.5075 N   0  0  0  0  0  0  0  0  0  0  0  0
   -9.0462    9.5650  -24.8655 C   0  0  0  0  0  0  0  0  0  0  0  0
   -9.2828    8.7053  -25.8563 N   0  0  0  0  0  0  0  0  0  0  0  0
  -10.4502    8.6577  -26.5384 C   0  0  0  0  0  0  0  0  0  0  0  0
  -10.6628    7.7231  -27.5912 N   0  0  0  0  0  0  0  0  0  0  0  0
  -10.6400   12.9887  -25.4588 O   0  0  0  0  0  0  0  0  0  0  0  0
  -11.6735   15.2096  -23.0110 O   0  0  0  0  0  0  0  0  0  0  0  0
  -13.6490   15.9858  -23.2465 H   0  0  0  0  0  0  0  0  0  0  0  0
  -14.9202   15.6713  -24.4752 H   0  0  0  0  0  0  0  0  0  0  0  0
  -13.4800   14.2790  -25.5999 H   0  0  0  0  0  0  0  0  0  0  0  0
  -11.4269   15.2013  -25.0366 H   0  0  0  0  0  0  0  0  0  0  0  0
  -10.4426   13.1108  -23.4234 H   0  0  0  0  0  0  0  0  0  0  0  0
  -12.2960   11.7250  -22.9820 H   0  0  0  0  0  0  0  0  0  0  0  0
  -14.2024   11.2543  -25.9733 H   0  0  0  0  0  0  0  0  0  0  0  0
   -8.1144    9.6152  -24.3089 H   0  0  0  0  0  0  0  0  0  0  0  0
  -11.1882    6.8570  -27.3510 H   0  0  0  0  0  0  0  0  0  0  0  0
  -10.3011    7.9290  -28.5246 H   0  0  0  0  0  0  0  0  0  0  0  0
   -9.9347   13.6826  -25.5209 H   0  0  0  0  0  0  0  0  0  0  0  0
  -10.7883   14.8981  -22.6445 H   0  0  0  0  0  0  0  0  0  0  0  0
  1  2  1  0
  2  3  1  0
  3  4  1  0
  4  5  1  0
  5  6  1  0
  5  7  1  0
  7  8  1  0
  8  9  2  0
  9 10  1  0
 10 11  2  0
 11 12  1  0
 12 13  2  0
 13 14  1  0
 14 15  2  0
 15 16  1  0
  4 17  1  0
  3 18  1  0
  6  2  1  0
 11  7  1  0
 15 10  1  0
  1 19  1  0
  1 20  1  0
  2 21  1  0
  3 22  1  0
  4 23  1  0
  5 24  1  0
  8 25  1  0
 13 26  1  0
 16 27  1  0
 16 28  1  0
 17 29  1  0
 18 30  1  0
M  RAD  1   1   2
M  END
$$$$

     RDKit          3D

 30 32  0  0  0  0  0  0  0  0999 V2000
  -11.3158   14.4852  -22.2172 C   0  0  0  0  0  3  0  0  0  0  0  0
  -12.4728   13.8664  -22.9971 C   0  0  0  0  0  0  0  0  0  0  0  0
  -12.7270   14.7594  -24.1925 C   0  0  0  0  0  0  0  0  0  0  0  0
  -12.3150   13.8565  -25.3348 C   0  0  0  0  0  0  0  0  0  0  0  0
  -12.7236   12.5075  -24.7509 C   0  0  0  0  0  0  0  0  0  0  0  0
  -12.1654   12.6113  -23.4797 O   0  0  0  0  0  0  0  0  0  0  0  0
  -12.1041   11.5108  -25.5633 N   0  0  0  0  0  0  0  0  0  0  0  0
  -12.0596   11.5940  -26.9066 C   0  0  0  0  0  0  0  0  0  0  0  0
  -11.4221   10.5273  -27.4007 N   0  0  0  0  0  0  0  0  0  0  0  0
  -11.0463    9.7401  -26.3773 C   0  0  0  0  0  0  0  0  0  0  0  0
  -11.4816   10.3713  -25.2326 C   0  0  0  0  0  0  0  0  0  0  0  0
  -11.2437    9.8087  -24.0511 N   0  0  0  0  0  0  0  0  0  0  0  0
  -10.5829    8.6336  -23.9877 C   0  0  0  0  0  0  0  0  0  0  0  0
  -10.1564    8.0144  -25.1029 N   0  0  0  0  0  0  0  0  0  0  0  0
  -10.3622    8.5243  -26.3178 C   0  0  0  0  0  0  0  0  0  0  0  0
   -9.9324    7.9099  -27.5211 N   0  0  0  0  0  0  0  0  0  0  0  0
  -10.9392   13.8159  -25.4963 O   0  0  0  0  0  0  0  0  0  0  0  0
  -14.0769   15.0713  -24.3264 O   0  0  0  0  0  0  0  0  0  0  0  0
  -10.7682   13.7483  -21.6193 H   0  0  0  0  0  0  0  0  0  0  0  0
  -10.6683   15.0718  -22.8917 H   0  0  0  0  0  0  0  0  0  0  0  0
  -13.3772   13.8930  -22.3570 H   0  0  0  0  0  0  0  0  0  0  0  0
  -12.1226   15.6757  -24.1760 H   0  0  0  0  0  0  0  0  0  0  0  0
  -12.8581   14.0717  -26.2682 H   0  0  0  0  0  0  0  0  0  0  0  0
  -13.8234   12.3847  -24.7199 H   0  0  0  0  0  0  0  0  0  0  0  0
  -12.4628   12.3834  -27.5471 H   0  0  0  0  0  0  0  0  0  0  0  0
  -10.3697    8.1415  -23.0283 H   0  0  0  0  0  0  0  0  0  0  0  0
  -10.6243    7.5370  -28.2010 H   0  0  0  0  0  0  0  0  0  0  0  0
   -8.9179    7.8147  -27.7578 H   0  0  0  0  0  0  0  0  0  0  0  0
  -10.5286   14.6788  -25.6822 H   0  0  0  0  0  0  0  0  0  0  0  0
  -14.4004   14.8077  -25.2388 H   0  0  0  0  0  0  0  0  0  0  0  0
  1  2  1  0
  2  3  1  0
  3  4  1  0
  4  5  1  0
  5  6  1  0
  5  7  1  0
  7  8  1  0
  8  9  2  0
  9 10  1  0
 10 11  2  0
 11 12  1  0
 12 13  2  0
 13 14  1  0
 14 15  2  0
 15 16  1  0
  4 17  1  0
  3 18  1  0
  6  2  1  0
 11  7  1  0
 15 10  1  0
  1 19  1  0
  1 20  1  0
  2 21  1  0
  3 22  1  0
  4 23  1  0
  5 24  1  0
  8 25  1  0
 13 26  1  0
 16 27  1  0
 16 28  1  0
 17 29  1  0
 18 30  1  0
M  RAD  1   1   2
M  END
$$$$

     RDKit          3D

 30 32  0  0  0  0  0  0  0  0999 V2000
  -14.3308   13.6140  -23.4539 C   0  0  0  0  0  3  0  0  0  0  0  0
  -12.8803   13.6713  -23.0138 C   0  0  0  0  0  0  0  0  0  0  0  0
  -12.2266   14.8047  -23.7756 C   0  0  0  0  0  0  0  0  0  0  0  0
  -11.7858   14.0513  -25.0380 C   0  0  0  0  0  0  0  0  0  0  0  0
  -11.4792   12.6932  -24.4623 C   0  0  0  0  0  0  0  0  0  0  0  0
  -12.2447   12.5089  -23.3487 O   0  0  0  0  0  0  0  0  0  0  0  0
  -11.5505   11.6430  -25.4348 N   0  0  0  0  0  0  0  0  0  0  0  0
  -12.0930   11.6483  -26.6746 C   0  0  0  0  0  0  0  0  0  0  0  0
  -11.9220   10.4265  -27.2236 N   0  0  0  0  0  0  0  0  0  0  0  0
  -11.2751    9.6277  -26.3552 C   0  0  0  0  0  0  0  0  0  0  0  0
  -11.0510   10.4086  -25.2399 C   0  0  0  0  0  0  0  0  0  0  0  0
  -10.3981    9.8189  -24.1967 N   0  0  0  0  0  0  0  0  0  0  0  0
   -9.9826    8.5585  -24.2147 C   0  0  0  0  0  0  0  0  0  0  0  0
  -10.1963    7.7913  -25.2955 N   0  0  0  0  0  0  0  0  0  0  0  0
  -10.8382    8.3159  -26.3637 C   0  0  0  0  0  0  0  0  0  0  0  0
  -11.0765    7.5313  -27.5145 N   0  0  0  0  0  0  0  0  0  0  0  0
  -10.6818   14.6735  -25.5806 O   0  0  0  0  0  0  0  0  0  0  0  0
  -13.1144   15.8211  -24.0701 O   0  0  0  0  0  0  0  0  0  0  0  0
  -14.7366   12.6039  -23.4970 H   0  0  0  0  0  0  0  0  0  0  0  0
  -14.9514   14.3270  -22.8835 H   0  0  0  0  0  0  0  0  0  0  0  0
  -12.7910   13.8454  -21.9219 H   0  0  0  0  0  0  0  0  0  0  0  0
  -11.3592   15.1496  -23.1858 H   0  0  0  0  0  0  0  0  0  0  0  0
  -12.6667   14.0339  -25.7159 H   0  0  0  0  0  0  0  0  0  0  0  0
  -10.4031   12.7390  -24.1222 H   0  0  0  0  0  0  0  0  0  0  0  0
  -12.5748   12.5027  -27.1216 H   0  0  0  0  0  0  0  0  0  0  0  0
   -9.4662    8.1568  -23.3399 H   0  0  0  0  0  0  0  0  0  0  0  0
  -11.0615    6.4868  -27.4893 H   0  0  0  0  0  0  0  0  0  0  0  0
  -11.2777    7.9745  -28.4385 H   0  0  0  0  0  0  0  0  0  0  0  0
  -11.0024   15.3133  -26.2901 H   0  0  0  0  0  0  0  0  0  0  0  0
  -12.5991   16.6840  -23.9669 H   0  0  0  0  0  0  0  0  0  0  0  0
  1  2  1  0
  2  3  1  0
  3  4  1  0
  4  5  1  0
  5  6  1  0
  5  7  1  0
  7  8  1  0
  8  9  2  0
  9 10  1  0
 10 11  2  0
 11 12  1  0
 12 13  2  0
 13 14  1  0
 14 15  2  0
 15 16  1  0
  4 17  1  0
  3 18  1  0
  6  2  1  0
 11  7  1  0
 15 10  1  0
  1 19  1  0
  1 20  1  0
  2 21  1  0
  3 22  1  0
  4 23  1  0
  5 24  1  0
  8 25  1  0
 13 26  1  0
 16 27  1  0
 16 28  1  0
 17 29  1  0
 18 30  1  0
M  RAD  1   1   2
M  END
$$$$

     RDKit          3D

 30 32  0  0  0  0  0  0  0  0999 V2000
  -14.0493   15.3781  -23.8885 C   0  0  0  0  0  3  0  0  0  0  0  0
  -13.3466   14.1042  -23.4688 C   0  0  0  0  0  0  0  0  0  0  0  0
  -11.8688   14.3260  -23.3299 C   0  0  0  0  0  0  0  0  0  0  0  0
  -11.2919   13.1463  -24.1174 C   0  0  0  0  0  0  0  0  0  0  0  0
  -12.5208   12.2258  -24.1382 C   0  0  0  0  0  0  0  0  0  0  0  0
  -13.5186   13.1180  -24.4531 O   0  0  0  0  0  0  0  0  0  0  0  0
  -12.3600   11.1765  -25.1083 N   0  0  0  0  0  0  0  0  0  0  0  0
  -13.1913   10.7341  -26.0676 C   0  0  0  0  0  0  0  0  0  0  0  0
  -12.5996    9.7208  -26.7373 N   0  0  0  0  0  0  0  0  0  0  0  0
  -11.3841    9.4995  -26.2186 C   0  0  0  0  0  0  0  0  0  0  0  0
  -11.2486   10.4190  -25.1994 C   0  0  0  0  0  0  0  0  0  0  0  0
  -10.0749   10.3804  -24.5202 N   0  0  0  0  0  0  0  0  0  0  0  0
   -9.1086    9.4980  -24.8272 C   0  0  0  0  0  0  0  0  0  0  0  0
   -9.2690    8.6129  -25.8267 N   0  0  0  0  0  0  0  0  0  0  0  0
  -10.4032    8.5890  -26.5453 C   0  0  0  0  0  0  0  0  0  0  0  0
  -10.5099    7.6315  -27.5855 N   0  0  0  0  0  0  0  0  0  0  0  0
  -10.9392   13.5146  -25.4036 O   0  0  0  0  0  0  0  0  0  0  0  0
  -11.4424   15.5333  -23.8204 O   0  0  0  0  0  0  0  0  0  0  0  0
  -15.1176   15.1143  -24.0315 H   0  0  0  0  0  0  0  0  0  0  0  0
  -14.0239   16.0768  -23.0163 H   0  0  0  0  0  0  0  0  0  0  0  0
  -13.7830   13.7234  -22.5157 H   0  0  0  0  0  0  0  0  0  0  0  0
  -11.5168   14.2004  -22.2715 H   0  0  0  0  0  0  0  0  0  0  0  0
  -10.5113   12.6175  -23.5657 H   0  0  0  0  0  0  0  0  0  0  0  0
  -12.6623   11.8679  -23.1162 H   0  0  0  0  0  0  0  0  0  0  0  0
  -14.1728   11.1623  -26.2324 H   0  0  0  0  0  0  0  0  0  0  0  0
   -8.2014    9.5227  -24.2468 H   0  0  0  0  0  0  0  0  0  0  0  0
  -10.8605    7.9577  -28.5044 H   0  0  0  0  0  0  0  0  0  0  0  0
  -10.2553    6.6226  -27.4745 H   0  0  0  0  0  0  0  0  0  0  0  0
  -10.4072   14.3562  -25.3462 H   0  0  0  0  0  0  0  0  0  0  0  0
  -10.7829   15.9238  -23.2161 H   0  0  0  0  0  0  0  0  0  0  0  0
  1  2  1  0
  2  3  1  0
  3  4  1  0
  4  5  1  0
  5  6  1  0
  5  7  1  0
  7  8  1  0
  8  9  2  0
  9 10  1  0
 10 11  2  0
 11 12  1  0
 12 13  2  0
 13 14  1  0
 14 15  2  0
 15 16  1  0
  4 17  1  0
  3 18  1  0
  6  2  1  0
 11  7  1  0
 15 10  1  0
  1 19  1  0
  1 20  1  0
  2 21  1  0
  3 22  1  0
  4 23  1  0
  5 24  1  0
  8 25  1  0
 13 26  1  0
 16 27  1  0
 16 28  1  0
 17 29  1  0
 18 30  1  0
M  RAD  1   1   2
M  END
$$$$

     RDKit          3D

 30 32  0  0  0  0  0  0  0  0999 V2000
  -14.4607   14.8383  -23.5252 C   0  0  0  0  0  3  0  0  0  0  0  0
  -13.2800   13.9500  -23.2254 C   0  0  0  0  0  0  0  0  0  0  0  0
  -12.0354   14.6603  -23.6875 C   0  0  0  0  0  0  0  0  0  0  0  0
  -11.5754   13.7399  -24.8192 C   0  0  0  0  0  0  0  0  0  0  0  0
  -12.0734   12.4223  -24.2589 C   0  0  0  0  0  0  0  0  0  0  0  0
  -13.3622   12.7503  -23.8778 O   0  0  0  0  0  0  0  0  0  0  0  0
  -12.0144   11.3556  -25.2173 N   0  0  0  0  0  0  0  0  0  0  0  0
  -12.8127   11.1240  -26.2676 C   0  0  0  0  0  0  0  0  0  0  0  0
  -12.4063   10.0126  -26.9081 N   0  0  0  0  0  0  0  0  0  0  0  0
  -11.3232    9.5107  -26.2635 C   0  0  0  0  0  0  0  0  0  0  0  0
  -11.1013   10.3688  -25.2128 C   0  0  0  0  0  0  0  0  0  0  0  0
  -10.0453   10.0612  -24.4105 N   0  0  0  0  0  0  0  0  0  0  0  0
   -9.2737    8.9824  -24.6408 C   0  0  0  0  0  0  0  0  0  0  0  0
   -9.5088    8.1557  -25.6752 N   0  0  0  0  0  0  0  0  0  0  0  0
  -10.5338    8.3953  -26.5102 C   0  0  0  0  0  0  0  0  0  0  0  0
  -10.8380    7.5651  -27.6198 N   0  0  0  0  0  0  0  0  0  0  0  0
  -10.2182   13.7692  -25.0057 O   0  0  0  0  0  0  0  0  0  0  0  0
  -12.2642   15.9462  -24.1304 O   0  0  0  0  0  0  0  0  0  0  0  0
  -14.1909   15.8005  -23.9757 H   0  0  0  0  0  0  0  0  0  0  0  0
  -15.2912   14.3116  -24.0272 H   0  0  0  0  0  0  0  0  0  0  0  0
  -13.2740   13.7479  -22.1342 H   0  0  0  0  0  0  0  0  0  0  0  0
  -11.2667   14.6000  -22.8795 H   0  0  0  0  0  0  0  0  0  0  0  0
  -12.1545   13.9660  -25.7251 H   0  0  0  0  0  0  0  0  0  0  0  0
  -11.4838   12.1836  -23.3753 H   0  0  0  0  0  0  0  0  0  0  0  0
  -13.6712   11.7228  -26.5863 H   0  0  0  0  0  0  0  0  0  0  0  0
   -8.4536    8.8290  -23.9360 H   0  0  0  0  0  0  0  0  0  0  0  0
  -11.6536    6.9354  -27.5468 H   0  0  0  0  0  0  0  0  0  0  0  0
  -10.2241    7.6263  -28.4627 H   0  0  0  0  0  0  0  0  0  0  0  0
  -10.0616   13.6974  -26.0004 H   0  0  0  0  0  0  0  0  0  0  0  0
  -11.4286   16.3090  -24.4675 H   0  0  0  0  0  0  0  0  0  0  0  0
  1  2  1  0
  2  3  1  0
  3  4  1  0
  4  5  1  0
  5  6  1  0
  5  7  1  0
  7  8  1  0
  8  9  2  0
  9 10  1  0
 10 11  2  0
 11 12  1  0
 12 13  2  0
 13 14  1  0
 14 15  2  0
 15 16  1  0
  4 17  1  0
  3 18  1  0
  6  2  1  0
 11  7  1  0
 15 10  1  0
  1 19  1  0
  1 20  1  0
  2 21  1  0
  3 22  1  0
  4 23  1  0
  5 24  1  0
  8 25  1  0
 13 26  1  0
 16 27  1  0
 16 28  1  0
 17 29  1  0
 18 30  1  0
M  RAD  1   1   2
M  END
$$$$

     RDKit          3D

 30 32  0  0  0  0  0  0  0  0999 V2000
  -13.4736   15.4984  -25.2121 C   0  0  0  0  0  3  0  0  0  0  0  0
  -13.3745   14.3368  -24.2433 C   0  0  0  0  0  0  0  0  0  0  0  0
  -12.0648   14.4334  -23.5393 C   0  0  0  0  0  0  0  0  0  0  0  0
  -11.4344   13.0718  -23.8648 C   0  0  0  0  0  0  0  0  0  0  0  0
  -12.6502   12.2522  -24.1336 C   0  0  0  0  0  0  0  0  0  0  0  0
  -13.4302   13.1218  -24.9053 O   0  0  0  0  0  0  0  0  0  0  0  0
  -12.3780   11.0252  -24.8338 N   0  0  0  0  0  0  0  0  0  0  0  0
  -13.3379   10.0966  -25.0630 C   0  0  0  0  0  0  0  0  0  0  0  0
  -12.7711    9.0757  -25.7333 N   0  0  0  0  0  0  0  0  0  0  0  0
  -11.4822    9.3331  -25.9335 C   0  0  0  0  0  0  0  0  0  0  0  0
  -11.2428   10.5636  -25.3635 C   0  0  0  0  0  0  0  0  0  0  0  0
  -10.0132   11.0985  -25.4061 N   0  0  0  0  0  0  0  0  0  0  0  0
   -9.0157   10.4016  -26.0210 C   0  0  0  0  0  0  0  0  0  0  0  0
   -9.2541    9.1911  -26.5810 N   0  0  0  0  0  0  0  0  0  0  0  0
  -10.4744    8.6273  -26.5558 C   0  0  0  0  0  0  0  0  0  0  0  0
  -10.7680    7.3691  -27.1260 N   0  0  0  0  0  0  0  0  0  0  0  0
  -10.7023   12.6425  -22.7716 O   0  0  0  0  0  0  0  0  0  0  0  0
  -11.2596   15.4694  -23.9690 O   0  0  0  0  0  0  0  0  0  0  0  0
  -12.5320   16.0785  -25.2790 H   0  0  0  0  0  0  0  0  0  0  0  0
  -14.3135   16.1516  -24.9036 H   0  0  0  0  0  0  0  0  0  0  0  0
  -14.2479   14.3550  -23.5303 H   0  0  0  0  0  0  0  0  0  0  0  0
  -12.2479   14.5250  -22.4553 H   0  0  0  0  0  0  0  0  0  0  0  0
  -10.8280   13.2414  -24.7710 H   0  0  0  0  0  0  0  0  0  0  0  0
  -13.1834   12.0454  -23.1956 H   0  0  0  0  0  0  0  0  0  0  0  0
  -14.3781   10.1546  -24.7649 H   0  0  0  0  0  0  0  0  0  0  0  0
   -8.0104   10.7792  -26.0865 H   0  0  0  0  0  0  0  0  0  0  0  0
  -11.5452    7.2696  -27.7938 H   0  0  0  0  0  0  0  0  0  0  0  0
  -10.1941    6.5463  -26.8665 H   0  0  0  0  0  0  0  0  0  0  0  0
   -9.8294   13.1296  -22.7973 H   0  0  0  0  0  0  0  0  0  0  0  0
  -10.6430   15.6971  -23.2342 H   0  0  0  0  0  0  0  0  0  0  0  0
  1  2  1  0
  2  3  1  0
  3  4  1  0
  4  5  1  0
  5  6  1  0
  5  7  1  0
  7  8  1  0
  8  9  2  0
  9 10  1  0
 10 11  2  0
 11 12  1  0
 12 13  2  0
 13 14  1  0
 14 15  2  0
 15 16  1  0
  4 17  1  0
  3 18  1  0
  6  2  1  0
 11  7  1  0
 15 10  1  0
  1 19  1  0
  1 20  1  0
  2 21  1  0
  3 22  1  0
  4 23  1  0
  5 24  1  0
  8 25  1  0
 13 26  1  0
 16 27  1  0
 16 28  1  0
 17 29  1  0
 18 30  1  0
M  RAD  1   1   2
M  END
$$$$

     RDKit          3D

 30 32  0  0  0  0  0  0  0  0999 V2000
  -11.1951   15.4454  -25.5214 C   0  0  0  0  0  3  0  0  0  0  0  0
  -11.7881   14.1266  -25.1078 C   0  0  0  0  0  0  0  0  0  0  0  0
  -12.9076   14.4012  -24.1163 C   0  0  0  0  0  0  0  0  0  0  0  0
  -12.9560   13.0640  -23.3715 C   0  0  0  0  0  0  0  0  0  0  0  0
  -11.7172   12.3744  -23.7944 C   0  0  0  0  0  0  0  0  0  0  0  0
  -10.8950   13.4034  -24.2854 O   0  0  0  0  0  0  0  0  0  0  0  0
  -11.9038   11.3747  -24.8168 N   0  0  0  0  0  0  0  0  0  0  0  0
  -12.9701   11.2204  -25.6169 C   0  0  0  0  0  0  0  0  0  0  0  0
  -12.7131   10.1684  -26.4122 N   0  0  0  0  0  0  0  0  0  0  0  0
  -11.4847    9.6600  -26.1132 C   0  0  0  0  0  0  0  0  0  0  0  0
  -10.9695   10.4342  -25.0918 C   0  0  0  0  0  0  0  0  0  0  0  0
   -9.7579   10.1172  -24.6294 N   0  0  0  0  0  0  0  0  0  0  0  0
   -9.0616    9.0824  -25.1372 C   0  0  0  0  0  0  0  0  0  0  0  0
   -9.5747    8.3324  -26.1353 N   0  0  0  0  0  0  0  0  0  0  0  0
  -10.7919    8.5946  -26.6508 C   0  0  0  0  0  0  0  0  0  0  0  0
  -11.3947    7.8652  -27.6857 N   0  0  0  0  0  0  0  0  0  0  0  0
  -12.9504   13.2874  -21.9832 O   0  0  0  0  0  0  0  0  0  0  0  0
  -14.0955   14.6561  -24.7866 O   0  0  0  0  0  0  0  0  0  0  0  0
  -11.3689   16.2404  -24.7859 H   0  0  0  0  0  0  0  0  0  0  0  0
  -11.7469   15.7617  -26.4523 H   0  0  0  0  0  0  0  0  0  0  0  0
  -12.1176   13.5133  -25.9579 H   0  0  0  0  0  0  0  0  0  0  0  0
  -12.5994   15.2183  -23.4535 H   0  0  0  0  0  0  0  0  0  0  0  0
  -13.8945   12.5765  -23.6236 H   0  0  0  0  0  0  0  0  0  0  0  0
  -11.2176   11.9100  -22.9256 H   0  0  0  0  0  0  0  0  0  0  0  0
  -13.8540   11.8414  -25.6006 H   0  0  0  0  0  0  0  0  0  0  0  0
   -8.0669    8.8188  -24.7607 H   0  0  0  0  0  0  0  0  0  0  0  0
  -11.7876    8.3965  -28.5065 H   0  0  0  0  0  0  0  0  0  0  0  0
  -11.4955    6.8289  -27.7258 H   0  0  0  0  0  0  0  0  0  0  0  0
  -12.1830   12.7953  -21.5970 H   0  0  0  0  0  0  0  0  0  0  0  0
  -14.5501   15.4718  -24.4617 H   0  0  0  0  0  0  0  0  0  0  0  0
  1  2  1  0
  2  3  1  0
  3  4  1  0
  4  5  1  0
  5  6  1  0
  5  7  1  0
  7  8  1  0
  8  9  2  0
  9 10  1  0
 10 11  2  0
 11 12  1  0
 12 13  2  0
 13 14  1  0
 14 15  2  0
 15 16  1  0
  4 17  1  0
  3 18  1  0
  6  2  1  0
 11  7  1  0
 15 10  1  0
  1 19  1  0
  1 20  1  0
  2 21  1  0
  3 22  1  0
  4 23  1  0
  5 24  1  0
  8 25  1  0
 13 26  1  0
 16 27  1  0
 16 28  1  0
 17 29  1  0
 18 30  1  0
M  RAD  1   1   2
M  END
$$$$

     RDKit          3D

 30 32  0  0  0  0  0  0  0  0999 V2000
  -13.4817   15.9595  -24.8135 C   0  0  0  0  0  3  0  0  0  0  0  0
  -12.4474   14.8954  -24.7634 C   0  0  0  0  0  0  0  0  0  0  0  0
  -12.1647   14.4097  -23.3376 C   0  0  0  0  0  0  0  0  0  0  0  0
  -11.3837   13.1255  -23.6499 C   0  0  0  0  0  0  0  0  0  0  0  0
  -11.7588   12.8768  -25.0749 C   0  0  0  0  0  0  0  0  0  0  0  0
  -12.8779   13.6819  -25.3464 O   0  0  0  0  0  0  0  0  0  0  0  0
  -11.9775   11.5043  -25.4033 N   0  0  0  0  0  0  0  0  0  0  0  0
  -13.1410   10.8221  -25.5450 C   0  0  0  0  0  0  0  0  0  0  0  0
  -12.8191    9.5550  -25.8587 N   0  0  0  0  0  0  0  0  0  0  0  0
  -11.5016    9.4145  -25.9195 C   0  0  0  0  0  0  0  0  0  0  0  0
  -10.9546   10.6307  -25.6358 C   0  0  0  0  0  0  0  0  0  0  0  0
   -9.6103   10.7915  -25.6242 N   0  0  0  0  0  0  0  0  0  0  0  0
   -8.7633    9.7829  -25.8859 C   0  0  0  0  0  0  0  0  0  0  0  0
   -9.2984    8.5795  -26.1668 N   0  0  0  0  0  0  0  0  0  0  0  0
  -10.6218    8.3656  -26.1917 C   0  0  0  0  0  0  0  0  0  0  0  0
  -11.1782    7.0910  -26.4894 N   0  0  0  0  0  0  0  0  0  0  0  0
  -11.8032   12.0859  -22.8169 O   0  0  0  0  0  0  0  0  0  0  0  0
  -13.3437   14.0362  -22.7331 O   0  0  0  0  0  0  0  0  0  0  0  0
  -13.2713   16.5873  -25.7293 H   0  0  0  0  0  0  0  0  0  0  0  0
  -13.2836   16.6638  -23.9588 H   0  0  0  0  0  0  0  0  0  0  0  0
  -11.4927   15.1465  -25.2616 H   0  0  0  0  0  0  0  0  0  0  0  0
  -11.5645   15.1321  -22.7792 H   0  0  0  0  0  0  0  0  0  0  0  0
  -10.2921   13.3144  -23.5755 H   0  0  0  0  0  0  0  0  0  0  0  0
  -10.9439   13.2911  -25.7340 H   0  0  0  0  0  0  0  0  0  0  0  0
  -14.1230   11.2584  -25.4193 H   0  0  0  0  0  0  0  0  0  0  0  0
   -7.6796    9.9359  -25.8708 H   0  0  0  0  0  0  0  0  0  0  0  0
  -11.2178    6.3940  -25.7343 H   0  0  0  0  0  0  0  0  0  0  0  0
  -11.5358    6.8780  -27.4571 H   0  0  0  0  0  0  0  0  0  0  0  0
  -11.1628   11.3547  -22.8826 H   0  0  0  0  0  0  0  0  0  0  0  0
  -14.1285   14.5416  -23.0229 H   0  0  0  0  0  0  0  0  0  0  0  0
  1  2  1  0
  2  3  1  0
  3  4  1  0
  4  5  1  0
  5  6  1  0
  5  7  1  0
  7  8  1  0
  8  9  2  0
  9 10  1  0
 10 11  2  0
 11 12  1  0
 12 13  2  0
 13 14  1  0
 14 15  2  0
 15 16  1  0
  4 17  1  0
  3 18  1  0
  6  2  1  0
 11  7  1  0
 15 10  1  0
  1 19  1  0
  1 20  1  0
  2 21  1  0
  3 22  1  0
  4 23  1  0
  5 24  1  0
  8 25  1  0
 13 26  1  0
 16 27  1  0
 16 28  1  0
 17 29  1  0
 18 30  1  0
M  RAD  1   1   2
M  END
$$$$

     RDKit          3D

 30 32  0  0  0  0  0  0  0  0999 V2000
  -12.5260   15.6238  -25.5729 C   0  0  0  0  0  3  0  0  0  0  0  0
  -11.8702   14.7026  -24.5546 C   0  0  0  0  0  0  0  0  0  0  0  0
  -12.8147   14.3513  -23.4502 C   0  0  0  0  0  0  0  0  0  0  0  0
  -12.8349   12.8187  -23.5411 C   0  0  0  0  0  0  0  0  0  0  0  0
  -12.5773   12.6916  -25.0495 C   0  0  0  0  0  0  0  0  0  0  0  0
  -11.5152   13.5423  -25.2103 O   0  0  0  0  0  0  0  0  0  0  0  0
  -12.3553   11.3472  -25.4516 N   0  0  0  0  0  0  0  0  0  0  0  0
  -13.3777   10.5059  -25.7889 C   0  0  0  0  0  0  0  0  0  0  0  0
  -12.8339    9.3186  -26.1183 N   0  0  0  0  0  0  0  0  0  0  0  0
  -11.5162    9.4008  -25.9955 C   0  0  0  0  0  0  0  0  0  0  0  0
  -11.2070   10.6639  -25.5795 C   0  0  0  0  0  0  0  0  0  0  0  0
   -9.9216   11.0149  -25.3754 N   0  0  0  0  0  0  0  0  0  0  0  0
   -8.9785   10.0871  -25.5946 C   0  0  0  0  0  0  0  0  0  0  0  0
   -9.2498    8.8348  -26.0044 N   0  0  0  0  0  0  0  0  0  0  0  0
  -10.5182    8.4792  -26.2087 C   0  0  0  0  0  0  0  0  0  0  0  0
  -10.8556    7.1529  -26.6464 N   0  0  0  0  0  0  0  0  0  0  0  0
  -11.7349   12.2774  -22.9049 O   0  0  0  0  0  0  0  0  0  0  0  0
  -12.4399   14.7949  -22.2093 O   0  0  0  0  0  0  0  0  0  0  0  0
  -11.6971   16.2198  -26.0479 H   0  0  0  0  0  0  0  0  0  0  0  0
  -13.2733   16.2993  -25.0947 H   0  0  0  0  0  0  0  0  0  0  0  0
  -11.0249   15.2576  -24.1198 H   0  0  0  0  0  0  0  0  0  0  0  0
  -13.8312   14.6715  -23.7620 H   0  0  0  0  0  0  0  0  0  0  0  0
  -13.7942   12.3976  -23.2463 H   0  0  0  0  0  0  0  0  0  0  0  0
  -13.4763   13.1565  -25.5326 H   0  0  0  0  0  0  0  0  0  0  0  0
  -14.4374   10.7374  -25.7950 H   0  0  0  0  0  0  0  0  0  0  0  0
   -7.9284   10.3343  -25.4402 H   0  0  0  0  0  0  0  0  0  0  0  0
  -10.1297    6.4454  -26.8213 H   0  0  0  0  0  0  0  0  0  0  0  0
  -11.8438    6.8919  -26.7923 H   0  0  0  0  0  0  0  0  0  0  0  0
  -10.9577   12.8773  -23.1381 H   0  0  0  0  0  0  0  0  0  0  0  0
  -13.2426   14.7129  -21.6126 H   0  0  0  0  0  0  0  0  0  0  0  0
  1  2  1  0
  2  3  1  0
  3  4  1  0
  4  5  1  0
  5  6  1  0
  5  7  1  0
  7  8  1  0
  8  9  2  0
  9 10  1  0
 10 11  2  0
 11 12  1  0
 12 13  2  0
 13 14  1  0
 14 15  2  0
 15 16  1  0
  4 17  1  0
  3 18  1  0
  6  2  1  0
 11  7  1  0
 15 10  1  0
  1 19  1  0
  1 20  1  0
  2 21  1  0
  3 22  1  0
  4 23  1  0
  5 24  1  0
  8 25  1  0
 13 26  1  0
 16 27  1  0
 16 28  1  0
 17 29  1  0
 18 30  1  0
M  RAD  1   1   2
M  END
$$$$

     RDKit          3D

 30 32  0  0  0  0  0  0  0  0999 V2000
  -11.4579   15.8059  -23.9498 C   0  0  0  0  0  3  0  0  0  0  0  0
  -12.1794   14.7639  -24.7838 C   0  0  0  0  0  0  0  0  0  0  0  0
  -13.2843   14.1941  -23.9421 C   0  0  0  0  0  0  0  0  0  0  0  0
  -12.7276   12.8993  -23.4681 C   0  0  0  0  0  0  0  0  0  0  0  0
  -11.5470   12.6632  -24.3451 C   0  0  0  0  0  0  0  0  0  0  0  0
  -11.3280   13.7609  -25.1304 O   0  0  0  0  0  0  0  0  0  0  0  0
  -11.7184   11.5147  -25.2096 N   0  0  0  0  0  0  0  0  0  0  0  0
  -12.7533   11.3656  -26.0525 C   0  0  0  0  0  0  0  0  0  0  0  0
  -12.5530   10.1792  -26.6732 N   0  0  0  0  0  0  0  0  0  0  0  0
  -11.4275    9.6187  -26.2228 C   0  0  0  0  0  0  0  0  0  0  0  0
  -10.8845   10.4678  -25.2833 C   0  0  0  0  0  0  0  0  0  0  0  0
   -9.7184   10.1390  -24.6541 N   0  0  0  0  0  0  0  0  0  0  0  0
   -9.0882    8.9858  -24.9433 C   0  0  0  0  0  0  0  0  0  0  0  0
   -9.5834    8.1285  -25.8537 N   0  0  0  0  0  0  0  0  0  0  0  0
  -10.7463    8.4401  -26.4917 C   0  0  0  0  0  0  0  0  0  0  0  0
  -11.3178    7.5818  -27.4577 N   0  0  0  0  0  0  0  0  0  0  0  0
  -12.3348   13.0225  -22.1484 O   0  0  0  0  0  0  0  0  0  0  0  0
  -14.4770   14.0770  -24.6466 O   0  0  0  0  0  0  0  0  0  0  0  0
  -11.1536   15.3210  -22.9970 H   0  0  0  0  0  0  0  0  0  0  0  0
  -10.5322   16.1085  -24.4810 H   0  0  0  0  0  0  0  0  0  0  0  0
  -12.6568   15.2890  -25.6491 H   0  0  0  0  0  0  0  0  0  0  0  0
  -13.5198   14.8551  -23.0591 H   0  0  0  0  0  0  0  0  0  0  0  0
  -13.5207   12.1221  -23.5965 H   0  0  0  0  0  0  0  0  0  0  0  0
  -10.6297   12.5298  -23.7050 H   0  0  0  0  0  0  0  0  0  0  0  0
  -13.6006   12.0172  -26.2434 H   0  0  0  0  0  0  0  0  0  0  0  0
   -8.1512    8.6948  -24.4550 H   0  0  0  0  0  0  0  0  0  0  0  0
  -11.4336    7.8691  -28.4436 H   0  0  0  0  0  0  0  0  0  0  0  0
  -11.6304    6.6365  -27.1705 H   0  0  0  0  0  0  0  0  0  0  0  0
  -12.9803   13.4677  -21.5767 H   0  0  0  0  0  0  0  0  0  0  0  0
  -14.8966   13.1861  -24.5550 H   0  0  0  0  0  0  0  0  0  0  0  0
  1  2  1  0
  2  3  1  0
  3  4  1  0
  4  5  1  0
  5  6  1  0
  5  7  1  0
  7  8  1  0
  8  9  2  0
  9 10  1  0
 10 11  2  0
 11 12  1  0
 12 13  2  0
 13 14  1  0
 14 15  2  0
 15 16  1  0
  4 17  1  0
  3 18  1  0
  6  2  1  0
 11  7  1  0
 15 10  1  0
  1 19  1  0
  1 20  1  0
  2 21  1  0
  3 22  1  0
  4 23  1  0
  5 24  1  0
  8 25  1  0
 13 26  1  0
 16 27  1  0
 16 28  1  0
 17 29  1  0
 18 30  1  0
M  RAD  1   1   2
M  END
$$$$

     RDKit          3D

 30 32  0  0  0  0  0  0  0  0999 V2000
  -13.0749   16.0420  -25.0296 C   0  0  0  0  0  3  0  0  0  0  0  0
  -12.1836   14.8783  -24.7676 C   0  0  0  0  0  0  0  0  0  0  0  0
  -12.1200   14.4578  -23.3303 C   0  0  0  0  0  0  0  0  0  0  0  0
  -11.7564   12.9900  -23.4397 C   0  0  0  0  0  0  0  0  0  0  0  0
  -11.6826   12.7950  -24.9381 C   0  0  0  0  0  0  0  0  0  0  0  0
  -12.6312   13.7013  -25.3897 O   0  0  0  0  0  0  0  0  0  0  0  0
  -11.9261   11.4467  -25.3476 N   0  0  0  0  0  0  0  0  0  0  0  0
  -13.0633   10.8018  -25.5639 C   0  0  0  0  0  0  0  0  0  0  0  0
  -12.8157    9.5215  -25.9432 N   0  0  0  0  0  0  0  0  0  0  0  0
  -11.4801    9.3718  -25.9614 C   0  0  0  0  0  0  0  0  0  0  0  0
  -10.9170   10.5607  -25.5933 C   0  0  0  0  0  0  0  0  0  0  0  0
   -9.5775   10.6801  -25.5308 N   0  0  0  0  0  0  0  0  0  0  0  0
   -8.7470    9.6800  -25.8143 C   0  0  0  0  0  0  0  0  0  0  0  0
   -9.2821    8.4962  -26.1803 N   0  0  0  0  0  0  0  0  0  0  0  0
  -10.6176    8.3172  -26.2607 C   0  0  0  0  0  0  0  0  0  0  0  0
  -11.2063    7.0908  -26.6405 N   0  0  0  0  0  0  0  0  0  0  0  0
  -12.7085   12.1739  -22.8512 O   0  0  0  0  0  0  0  0  0  0  0  0
  -13.3372   14.6027  -22.6738 O   0  0  0  0  0  0  0  0  0  0  0  0
  -14.0519   15.9859  -24.5117 H   0  0  0  0  0  0  0  0  0  0  0  0
  -12.5194   16.9663  -24.7441 H   0  0  0  0  0  0  0  0  0  0  0  0
  -11.1829   15.1020  -25.1600 H   0  0  0  0  0  0  0  0  0  0  0  0
  -11.3172   14.9520  -22.7611 H   0  0  0  0  0  0  0  0  0  0  0  0
  -10.7793   12.7612  -23.0143 H   0  0  0  0  0  0  0  0  0  0  0  0
  -10.6981   13.1537  -25.3102 H   0  0  0  0  0  0  0  0  0  0  0  0
  -14.0445   11.2422  -25.4513 H   0  0  0  0  0  0  0  0  0  0  0  0
   -7.6736    9.7576  -25.7696 H   0  0  0  0  0  0  0  0  0  0  0  0
  -11.2567    6.3215  -25.9548 H   0  0  0  0  0  0  0  0  0  0  0  0
  -11.5808    6.9697  -27.5949 H   0  0  0  0  0  0  0  0  0  0  0  0
  -13.5934   12.2501  -23.2900 H   0  0  0  0  0  0  0  0  0  0  0  0
  -14.0576   14.2513  -23.2318 H   0  0  0  0  0  0  0  0  0  0  0  0
  1  2  1  0
  2  3  1  0
  3  4  1  0
  4  5  1  0
  5  6  1  0
  5  7  1  0
  7  8  1  0
  8  9  2  0
  9 10  1  0
 10 11  2  0
 11 12  1  0
 12 13  2  0
 13 14  1  0
 14 15  2  0
 15 16  1  0
  4 17  1  0
  3 18  1  0
  6  2  1  0
 11  7  1  0
 15 10  1  0
  1 19  1  0
  1 20  1  0
  2 21  1  0
  3 22  1  0
  4 23  1  0
  5 24  1  0
  8 25  1  0
 13 26  1  0
 16 27  1  0
 16 28  1  0
 17 29  1  0
 18 30  1  0
M  RAD  1   1   2
M  END
$$$$

     RDKit          3D

 30 32  0  0  0  0  0  0  0  0999 V2000
  -14.3909   13.5439  -22.8902 C   0  0  0  0  0  3  0  0  0  0  0  0
  -13.3923   13.3591  -23.9802 C   0  0  0  0  0  0  0  0  0  0  0  0
  -12.7527   14.6782  -24.4210 C   0  0  0  0  0  0  0  0  0  0  0  0
  -11.5906   14.1364  -25.2436 C   0  0  0  0  0  0  0  0  0  0  0  0
  -11.3575   12.8035  -24.6153 C   0  0  0  0  0  0  0  0  0  0  0  0
  -12.2338   12.6751  -23.5430 O   0  0  0  0  0  0  0  0  0  0  0  0
  -11.5481   11.6910  -25.5126 N   0  0  0  0  0  0  0  0  0  0  0  0
  -12.2314   11.6085  -26.6675 C   0  0  0  0  0  0  0  0  0  0  0  0
  -12.1163   10.3467  -27.1465 N   0  0  0  0  0  0  0  0  0  0  0  0
  -11.3670    9.6299  -26.3063 C   0  0  0  0  0  0  0  0  0  0  0  0
  -11.0035   10.4658  -25.2738 C   0  0  0  0  0  0  0  0  0  0  0  0
  -10.2380    9.9950  -24.2775 N   0  0  0  0  0  0  0  0  0  0  0  0
   -9.8018    8.7308  -24.2355 C   0  0  0  0  0  0  0  0  0  0  0  0
  -10.1513    7.9079  -25.2383 N   0  0  0  0  0  0  0  0  0  0  0  0
  -10.9157    8.3146  -26.2667 C   0  0  0  0  0  0  0  0  0  0  0  0
  -11.2694    7.4325  -27.3077 N   0  0  0  0  0  0  0  0  0  0  0  0
  -10.5262   15.0195  -25.0573 O   0  0  0  0  0  0  0  0  0  0  0  0
  -12.2403   15.2696  -23.2729 O   0  0  0  0  0  0  0  0  0  0  0  0
  -15.3315   13.0086  -23.2074 H   0  0  0  0  0  0  0  0  0  0  0  0
  -14.6573   14.5876  -22.7132 H   0  0  0  0  0  0  0  0  0  0  0  0
  -13.7894   12.8395  -24.8715 H   0  0  0  0  0  0  0  0  0  0  0  0
  -13.4307   15.3057  -24.9914 H   0  0  0  0  0  0  0  0  0  0  0  0
  -11.9237   14.1043  -26.2802 H   0  0  0  0  0  0  0  0  0  0  0  0
  -10.2930   12.7732  -24.2779 H   0  0  0  0  0  0  0  0  0  0  0  0
  -12.7680   12.4389  -27.1018 H   0  0  0  0  0  0  0  0  0  0  0  0
   -9.1746    8.3797  -23.4009 H   0  0  0  0  0  0  0  0  0  0  0  0
  -11.9242    6.6575  -27.1444 H   0  0  0  0  0  0  0  0  0  0  0  0
  -10.8621    7.5707  -28.2474 H   0  0  0  0  0  0  0  0  0  0  0  0
  -10.0834   15.2087  -25.9195 H   0  0  0  0  0  0  0  0  0  0  0  0
  -12.1585   16.2416  -23.3236 H   0  0  0  0  0  0  0  0  0  0  0  0
  1  2  1  0
  2  3  1  0
  3  4  1  0
  4  5  1  0
  5  6  1  0
  5  7  1  0
  7  8  1  0
  8  9  2  0
  9 10  1  0
 10 11  2  0
 11 12  1  0
 12 13  2  0
 13 14  1  0
 14 15  2  0
 15 16  1  0
  4 17  1  0
  3 18  1  0
  6  2  1  0
 11  7  1  0
 15 10  1  0
  1 19  1  0
  1 20  1  0
  2 21  1  0
  3 22  1  0
  4 23  1  0
  5 24  1  0
  8 25  1  0
 13 26  1  0
 16 27  1  0
 16 28  1  0
 17 29  1  0
 18 30  1  0
M  RAD  1   1   2
M  END
$$$$

     RDKit          3D

 30 32  0  0  0  0  0  0  0  0999 V2000
  -13.0951   15.5987  -25.4140 C   0  0  0  0  0  3  0  0  0  0  0  0
  -13.2521   14.4113  -24.5026 C   0  0  0  0  0  0  0  0  0  0  0  0
  -12.1516   14.4137  -23.4853 C   0  0  0  0  0  0  0  0  0  0  0  0
  -11.5523   13.0146  -23.6754 C   0  0  0  0  0  0  0  0  0  0  0  0
  -12.7386   12.2783  -24.2408 C   0  0  0  0  0  0  0  0  0  0  0  0
  -13.2413   13.2011  -25.1538 O   0  0  0  0  0  0  0  0  0  0  0  0
  -12.4032   11.0232  -24.8343 N   0  0  0  0  0  0  0  0  0  0  0  0
  -13.2483    9.9625  -24.8806 C   0  0  0  0  0  0  0  0  0  0  0  0
  -12.6853    8.9183  -25.4889 N   0  0  0  0  0  0  0  0  0  0  0  0
  -11.4437    9.3207  -25.8428 C   0  0  0  0  0  0  0  0  0  0  0  0
  -11.2908   10.6233  -25.4290 C   0  0  0  0  0  0  0  0  0  0  0  0
  -10.1218   11.2317  -25.6785 N   0  0  0  0  0  0  0  0  0  0  0  0
   -9.1366   10.5443  -26.3268 C   0  0  0  0  0  0  0  0  0  0  0  0
   -9.2991    9.2723  -26.7256 N   0  0  0  0  0  0  0  0  0  0  0  0
  -10.4578    8.6281  -26.4934 C   0  0  0  0  0  0  0  0  0  0  0  0
  -10.6783    7.2825  -26.8956 N   0  0  0  0  0  0  0  0  0  0  0  0
  -11.1310   12.4808  -22.4662 O   0  0  0  0  0  0  0  0  0  0  0  0
  -11.2001   15.4027  -23.7225 O   0  0  0  0  0  0  0  0  0  0  0  0
  -12.6316   16.4177  -24.8142 H   0  0  0  0  0  0  0  0  0  0  0  0
  -14.0847   15.9811  -25.7756 H   0  0  0  0  0  0  0  0  0  0  0  0
  -14.2461   14.5046  -23.9773 H   0  0  0  0  0  0  0  0  0  0  0  0
  -12.5696   14.5264  -22.4668 H   0  0  0  0  0  0  0  0  0  0  0  0
  -10.7270   13.1431  -24.3961 H   0  0  0  0  0  0  0  0  0  0  0  0
  -13.4458   12.1075  -23.4037 H   0  0  0  0  0  0  0  0  0  0  0  0
  -14.2536    9.9492  -24.4799 H   0  0  0  0  0  0  0  0  0  0  0  0
   -8.1780   11.0037  -26.5458 H   0  0  0  0  0  0  0  0  0  0  0  0
  -10.1326    6.4787  -26.5181 H   0  0  0  0  0  0  0  0  0  0  0  0
  -11.4203    7.0204  -27.6115 H   0  0  0  0  0  0  0  0  0  0  0  0
  -11.5751   11.6116  -22.2542 H   0  0  0  0  0  0  0  0  0  0  0  0
  -11.2755   16.1066  -23.0065 H   0  0  0  0  0  0  0  0  0  0  0  0
  1  2  1  0
  2  3  1  0
  3  4  1  0
  4  5  1  0
  5  6  1  0
  5  7  1  0
  7  8  1  0
  8  9  2  0
  9 10  1  0
 10 11  2  0
 11 12  1  0
 12 13  2  0
 13 14  1  0
 14 15  2  0
 15 16  1  0
  4 17  1  0
  3 18  1  0
  6  2  1  0
 11  7  1  0
 15 10  1  0
  1 19  1  0
  1 20  1  0
  2 21  1  0
  3 22  1  0
  4 23  1  0
  5 24  1  0
  8 25  1  0
 13 26  1  0
 16 27  1  0
 16 28  1  0
 17 29  1  0
 18 30  1  0
M  RAD  1   1   2
M  END
$$$$

     RDKit          3D

 30 32  0  0  0  0  0  0  0  0999 V2000
  -13.9426   15.4515  -24.6963 C   0  0  0  0  0  3  0  0  0  0  0  0
  -13.3651   14.2631  -23.9675 C   0  0  0  0  0  0  0  0  0  0  0  0
  -11.9252   14.4201  -23.6139 C   0  0  0  0  0  0  0  0  0  0  0  0
  -11.3400   13.0660  -24.0375 C   0  0  0  0  0  0  0  0  0  0  0  0
  -12.6009   12.2557  -24.1859 C   0  0  0  0  0  0  0  0  0  0  0  0
  -13.4425   13.1741  -24.8359 O   0  0  0  0  0  0  0  0  0  0  0  0
  -12.4009   11.0559  -24.9277 N   0  0  0  0  0  0  0  0  0  0  0  0
  -13.3879   10.2377  -25.3340 C   0  0  0  0  0  0  0  0  0  0  0  0
  -12.8522    9.2075  -26.0033 N   0  0  0  0  0  0  0  0  0  0  0  0
  -11.5121    9.3903  -26.0118 C   0  0  0  0  0  0  0  0  0  0  0  0
  -11.2223   10.5549  -25.3346 C   0  0  0  0  0  0  0  0  0  0  0  0
   -9.9474   10.9630  -25.2014 N   0  0  0  0  0  0  0  0  0  0  0  0
   -8.9140   10.2694  -25.7116 C   0  0  0  0  0  0  0  0  0  0  0  0
   -9.2116    9.1347  -26.3701 N   0  0  0  0  0  0  0  0  0  0  0  0
  -10.4626    8.6829  -26.5318 C   0  0  0  0  0  0  0  0  0  0  0  0
  -10.7693    7.4786  -27.2314 N   0  0  0  0  0  0  0  0  0  0  0  0
  -10.5417   12.5306  -23.0433 O   0  0  0  0  0  0  0  0  0  0  0  0
  -11.2888   15.4721  -24.2181 O   0  0  0  0  0  0  0  0  0  0  0  0
  -13.2089   16.2384  -24.9049 H   0  0  0  0  0  0  0  0  0  0  0  0
  -14.8966   15.8014  -24.2833 H   0  0  0  0  0  0  0  0  0  0  0  0
  -14.0027   13.9809  -23.0797 H   0  0  0  0  0  0  0  0  0  0  0  0
  -11.8457   14.4443  -22.4974 H   0  0  0  0  0  0  0  0  0  0  0  0
  -10.7780   13.1826  -24.9808 H   0  0  0  0  0  0  0  0  0  0  0  0
  -12.9804   12.0557  -23.1545 H   0  0  0  0  0  0  0  0  0  0  0  0
  -14.4436   10.3689  -25.1612 H   0  0  0  0  0  0  0  0  0  0  0  0
   -7.8792   10.6157  -25.5944 H   0  0  0  0  0  0  0  0  0  0  0  0
  -10.1371    7.1681  -28.0120 H   0  0  0  0  0  0  0  0  0  0  0  0
  -11.5946    6.8992  -26.9963 H   0  0  0  0  0  0  0  0  0  0  0  0
  -10.0693   13.2284  -22.5337 H   0  0  0  0  0  0  0  0  0  0  0  0
  -11.1089   16.2125  -23.5647 H   0  0  0  0  0  0  0  0  0  0  0  0
  1  2  1  0
  2  3  1  0
  3  4  1  0
  4  5  1  0
  5  6  1  0
  5  7  1  0
  7  8  1  0
  8  9  2  0
  9 10  1  0
 10 11  2  0
 11 12  1  0
 12 13  2  0
 13 14  1  0
 14 15  2  0
 15 16  1  0
  4 17  1  0
  3 18  1  0
  6  2  1  0
 11  7  1  0
 15 10  1  0
  1 19  1  0
  1 20  1  0
  2 21  1  0
  3 22  1  0
  4 23  1  0
  5 24  1  0
  8 25  1  0
 13 26  1  0
 16 27  1  0
 16 28  1  0
 17 29  1  0
 18 30  1  0
M  RAD  1   1   2
M  END
$$$$

     RDKit          3D

 30 32  0  0  0  0  0  0  0  0999 V2000
  -14.3842   14.7727  -24.1104 C   0  0  0  0  0  3  0  0  0  0  0  0
  -13.2893   13.9791  -23.3987 C   0  0  0  0  0  0  0  0  0  0  0  0
  -11.9207   14.5415  -23.6768 C   0  0  0  0  0  0  0  0  0  0  0  0
  -11.2832   13.3953  -24.4767 C   0  0  0  0  0  0  0  0  0  0  0  0
  -12.5194   12.7175  -24.9828 C   0  0  0  0  0  0  0  0  0  0  0  0
  -13.3088   12.6715  -23.8521 O   0  0  0  0  0  0  0  0  0  0  0  0
  -12.2831   11.4307  -25.5853 N   0  0  0  0  0  0  0  0  0  0  0  0
  -13.1352   10.8350  -26.4390 C   0  0  0  0  0  0  0  0  0  0  0  0
  -12.6378    9.6630  -26.8191 N   0  0  0  0  0  0  0  0  0  0  0  0
  -11.4662    9.4841  -26.2223 C   0  0  0  0  0  0  0  0  0  0  0  0
  -11.2486   10.6015  -25.4463 C   0  0  0  0  0  0  0  0  0  0  0  0
  -10.1154   10.7175  -24.7019 N   0  0  0  0  0  0  0  0  0  0  0  0
   -9.2172    9.7166  -24.7435 C   0  0  0  0  0  0  0  0  0  0  0  0
   -9.4315    8.6263  -25.5018 N   0  0  0  0  0  0  0  0  0  0  0  0
  -10.5384    8.4664  -26.2559 C   0  0  0  0  0  0  0  0  0  0  0  0
  -10.6995    7.2939  -27.0300 N   0  0  0  0  0  0  0  0  0  0  0  0
  -10.4509   13.8620  -25.4685 O   0  0  0  0  0  0  0  0  0  0  0  0
  -11.1973   14.8334  -22.5447 O   0  0  0  0  0  0  0  0  0  0  0  0
  -15.2309   14.9660  -23.3992 H   0  0  0  0  0  0  0  0  0  0  0  0
  -14.8263   14.1378  -24.9196 H   0  0  0  0  0  0  0  0  0  0  0  0
  -13.4384   14.0356  -22.2922 H   0  0  0  0  0  0  0  0  0  0  0  0
  -12.0362   15.4439  -24.3401 H   0  0  0  0  0  0  0  0  0  0  0  0
  -10.7494   12.7839  -23.7110 H   0  0  0  0  0  0  0  0  0  0  0  0
  -13.0106   13.3778  -25.7107 H   0  0  0  0  0  0  0  0  0  0  0  0
  -14.0951   11.2754  -26.7582 H   0  0  0  0  0  0  0  0  0  0  0  0
   -8.2907    9.7764  -24.1551 H   0  0  0  0  0  0  0  0  0  0  0  0
  -10.3267    7.2811  -27.9987 H   0  0  0  0  0  0  0  0  0  0  0  0
  -11.1733    6.4392  -26.6804 H   0  0  0  0  0  0  0  0  0  0  0  0
   -9.5178   13.9151  -25.0906 H   0  0  0  0  0  0  0  0  0  0  0  0
  -11.2578   15.7939  -22.2929 H   0  0  0  0  0  0  0  0  0  0  0  0
  1  2  1  0
  2  3  1  0
  3  4  1  0
  4  5  1  0
  5  6  1  0
  5  7  1  0
  7  8  1  0
  8  9  2  0
  9 10  1  0
 10 11  2  0
 11 12  1  0
 12 13  2  0
 13 14  1  0
 14 15  2  0
 15 16  1  0
  4 17  1  0
  3 18  1  0
  6  2  1  0
 11  7  1  0
 15 10  1  0
  1 19  1  0
  1 20  1  0
  2 21  1  0
  3 22  1  0
  4 23  1  0
  5 24  1  0
  8 25  1  0
 13 26  1  0
 16 27  1  0
 16 28  1  0
 17 29  1  0
 18 30  1  0
M  RAD  1   1   2
M  END
$$$$

     RDKit          3D

 30 32  0  0  0  0  0  0  0  0999 V2000
  -13.5364   13.7235  -21.8812 C   0  0  0  0  0  3  0  0  0  0  0  0
  -13.2612   13.8156  -23.3677 C   0  0  0  0  0  0  0  0  0  0  0  0
  -11.9464   14.4899  -23.6298 C   0  0  0  0  0  0  0  0  0  0  0  0
  -11.2272   13.4666  -24.5124 C   0  0  0  0  0  0  0  0  0  0  0  0
  -12.4568   12.7572  -25.0847 C   0  0  0  0  0  0  0  0  0  0  0  0
  -13.1849   12.5383  -23.9271 O   0  0  0  0  0  0  0  0  0  0  0  0
  -12.1342   11.5821  -25.8088 N   0  0  0  0  0  0  0  0  0  0  0  0
  -12.5584   11.2614  -27.0447 C   0  0  0  0  0  0  0  0  0  0  0  0
  -12.0369   10.0556  -27.4016 N   0  0  0  0  0  0  0  0  0  0  0  0
  -11.2856    9.6117  -26.3994 C   0  0  0  0  0  0  0  0  0  0  0  0
  -11.3588   10.5893  -25.4013 C   0  0  0  0  0  0  0  0  0  0  0  0
  -10.6706   10.3627  -24.2721 N   0  0  0  0  0  0  0  0  0  0  0  0
   -9.9321    9.2543  -24.0751 C   0  0  0  0  0  0  0  0  0  0  0  0
   -9.8799    8.3239  -25.0602 N   0  0  0  0  0  0  0  0  0  0  0  0
  -10.5304    8.4672  -26.2108 C   0  0  0  0  0  0  0  0  0  0  0  0
  -10.5115    7.5301  -27.2716 N   0  0  0  0  0  0  0  0  0  0  0  0
  -10.5111   14.1149  -25.5151 O   0  0  0  0  0  0  0  0  0  0  0  0
  -12.1047   15.6636  -24.3925 O   0  0  0  0  0  0  0  0  0  0  0  0
  -13.1122   14.6400  -21.4216 H   0  0  0  0  0  0  0  0  0  0  0  0
  -14.6325   13.6328  -21.7406 H   0  0  0  0  0  0  0  0  0  0  0  0
  -14.0762   14.3653  -23.9003 H   0  0  0  0  0  0  0  0  0  0  0  0
  -11.3745   14.7273  -22.7237 H   0  0  0  0  0  0  0  0  0  0  0  0
  -10.6034   12.7810  -23.9093 H   0  0  0  0  0  0  0  0  0  0  0  0
  -12.9972   13.5254  -25.6689 H   0  0  0  0  0  0  0  0  0  0  0  0
  -13.2062   11.8022  -27.7235 H   0  0  0  0  0  0  0  0  0  0  0  0
   -9.3762    9.0680  -23.1667 H   0  0  0  0  0  0  0  0  0  0  0  0
  -11.3663    7.0484  -27.5981 H   0  0  0  0  0  0  0  0  0  0  0  0
   -9.6143    7.3059  -27.7514 H   0  0  0  0  0  0  0  0  0  0  0  0
  -11.0185   13.9985  -26.3521 H   0  0  0  0  0  0  0  0  0  0  0  0
  -11.3234   16.2220  -24.2004 H   0  0  0  0  0  0  0  0  0  0  0  0
  1  2  1  0
  2  3  1  0
  3  4  1  0
  4  5  1  0
  5  6  1  0
  5  7  1  0
  7  8  1  0
  8  9  2  0
  9 10  1  0
 10 11  2  0
 11 12  1  0
 12 13  2  0
 13 14  1  0
 14 15  2  0
 15 16  1  0
  4 17  1  0
  3 18  1  0
  6  2  1  0
 11  7  1  0
 15 10  1  0
  1 19  1  0
  1 20  1  0
  2 21  1  0
  3 22  1  0
  4 23  1  0
  5 24  1  0
  8 25  1  0
 13 26  1  0
 16 27  1  0
 16 28  1  0
 17 29  1  0
 18 30  1  0
M  RAD  1   1   2
M  END
$$$$

     RDKit          3D

 30 32  0  0  0  0  0  0  0  0999 V2000
  -12.1757   14.1847  -21.7574 C   0  0  0  0  0  3  0  0  0  0  0  0
  -11.9078   14.2052  -23.2431 C   0  0  0  0  0  0  0  0  0  0  0  0
  -13.2570   14.4412  -23.9259 C   0  0  0  0  0  0  0  0  0  0  0  0
  -13.0061   13.6251  -25.2053 C   0  0  0  0  0  0  0  0  0  0  0  0
  -12.2737   12.4554  -24.5870 C   0  0  0  0  0  0  0  0  0  0  0  0
  -11.3921   13.0370  -23.7222 O   0  0  0  0  0  0  0  0  0  0  0  0
  -11.7024   11.5698  -25.5550 N   0  0  0  0  0  0  0  0  0  0  0  0
  -11.3816   11.7350  -26.8410 C   0  0  0  0  0  0  0  0  0  0  0  0
  -10.8591   10.5979  -27.3624 N   0  0  0  0  0  0  0  0  0  0  0  0
  -10.8429    9.6741  -26.3845 C   0  0  0  0  0  0  0  0  0  0  0  0
  -11.3667   10.2775  -25.2614 C   0  0  0  0  0  0  0  0  0  0  0  0
  -11.4552    9.5420  -24.1347 N   0  0  0  0  0  0  0  0  0  0  0  0
  -11.0560    8.2593  -24.0700 C   0  0  0  0  0  0  0  0  0  0  0  0
  -10.5485    7.6930  -25.1785 N   0  0  0  0  0  0  0  0  0  0  0  0
  -10.4226    8.3413  -26.3362 C   0  0  0  0  0  0  0  0  0  0  0  0
   -9.8954    7.7776  -27.5150 N   0  0  0  0  0  0  0  0  0  0  0  0
  -12.1553   14.4176  -25.9758 O   0  0  0  0  0  0  0  0  0  0  0  0
  -13.4287   15.7742  -24.2005 O   0  0  0  0  0  0  0  0  0  0  0  0
  -13.0993   13.6340  -21.5058 H   0  0  0  0  0  0  0  0  0  0  0  0
  -12.0979   15.1663  -21.2920 H   0  0  0  0  0  0  0  0  0  0  0  0
  -11.2848   15.0888  -23.4757 H   0  0  0  0  0  0  0  0  0  0  0  0
  -14.0747   14.0004  -23.3294 H   0  0  0  0  0  0  0  0  0  0  0  0
  -13.9351   13.3564  -25.6992 H   0  0  0  0  0  0  0  0  0  0  0  0
  -13.0455   11.9206  -23.9580 H   0  0  0  0  0  0  0  0  0  0  0  0
  -11.5278   12.6698  -27.3854 H   0  0  0  0  0  0  0  0  0  0  0  0
  -11.1455    7.6938  -23.1301 H   0  0  0  0  0  0  0  0  0  0  0  0
  -10.4171    7.8983  -28.4055 H   0  0  0  0  0  0  0  0  0  0  0  0
   -9.0051    7.2585  -27.4688 H   0  0  0  0  0  0  0  0  0  0  0  0
  -12.5960   14.8137  -26.7431 H   0  0  0  0  0  0  0  0  0  0  0  0
  -13.2326   16.2808  -23.3724 H   0  0  0  0  0  0  0  0  0  0  0  0
  1  2  1  0
  2  3  1  0
  3  4  1  0
  4  5  1  0
  5  6  1  0
  5  7  1  0
  7  8  1  0
  8  9  2  0
  9 10  1  0
 10 11  2  0
 11 12  1  0
 12 13  2  0
 13 14  1  0
 14 15  2  0
 15 16  1  0
  4 17  1  0
  3 18  1  0
  6  2  1  0
 11  7  1  0
 15 10  1  0
  1 19  1  0
  1 20  1  0
  2 21  1  0
  3 22  1  0
  4 23  1  0
  5 24  1  0
  8 25  1  0
 13 26  1  0
 16 27  1  0
 16 28  1  0
 17 29  1  0
 18 30  1  0
M  RAD  1   1   2
M  END
$$$$

     RDKit          3D

 30 32  0  0  0  0  0  0  0  0999 V2000
  -11.2932   14.4335  -22.4896 C   0  0  0  0  0  3  0  0  0  0  0  0
  -12.5081   13.6454  -22.9094 C   0  0  0  0  0  0  0  0  0  0  0  0
  -13.2892   14.3083  -24.0051 C   0  0  0  0  0  0  0  0  0  0  0  0
  -12.4829   13.9362  -25.2397 C   0  0  0  0  0  0  0  0  0  0  0  0
  -11.5402   12.9038  -24.6953 C   0  0  0  0  0  0  0  0  0  0  0  0
  -12.1219   12.4423  -23.4963 O   0  0  0  0  0  0  0  0  0  0  0  0
  -11.2917   11.8140  -25.5899 N   0  0  0  0  0  0  0  0  0  0  0  0
  -11.1992   11.8545  -26.9260 C   0  0  0  0  0  0  0  0  0  0  0  0
  -10.9553   10.6069  -27.4049 N   0  0  0  0  0  0  0  0  0  0  0  0
  -10.8908    9.7607  -26.3703 C   0  0  0  0  0  0  0  0  0  0  0  0
  -11.1054   10.5354  -25.2232 C   0  0  0  0  0  0  0  0  0  0  0  0
  -11.0813    9.8686  -24.0482 N   0  0  0  0  0  0  0  0  0  0  0  0
  -10.8663    8.5428  -23.9618 C   0  0  0  0  0  0  0  0  0  0  0  0
  -10.6648    7.8378  -25.0897 N   0  0  0  0  0  0  0  0  0  0  0  0
  -10.6680    8.4003  -26.3124 C   0  0  0  0  0  0  0  0  0  0  0  0
  -10.4496    7.6049  -27.4645 N   0  0  0  0  0  0  0  0  0  0  0  0
  -13.3593   13.4192  -26.1874 O   0  0  0  0  0  0  0  0  0  0  0  0
  -13.3597   15.6933  -23.8424 O   0  0  0  0  0  0  0  0  0  0  0  0
  -11.2152   15.4099  -23.0055 H   0  0  0  0  0  0  0  0  0  0  0  0
  -11.2207   14.5388  -21.3863 H   0  0  0  0  0  0  0  0  0  0  0  0
  -13.1397   13.4509  -21.9991 H   0  0  0  0  0  0  0  0  0  0  0  0
  -14.3097   13.8844  -24.0262 H   0  0  0  0  0  0  0  0  0  0  0  0
  -11.9352   14.8213  -25.6393 H   0  0  0  0  0  0  0  0  0  0  0  0
  -10.6051   13.4348  -24.3810 H   0  0  0  0  0  0  0  0  0  0  0  0
  -11.3073   12.7588  -27.5044 H   0  0  0  0  0  0  0  0  0  0  0  0
  -10.8585    8.0587  -22.9786 H   0  0  0  0  0  0  0  0  0  0  0  0
   -9.5186    7.1957  -27.6649 H   0  0  0  0  0  0  0  0  0  0  0  0
  -11.2187    7.4150  -28.1332 H   0  0  0  0  0  0  0  0  0  0  0  0
  -13.9867   14.1704  -26.4130 H   0  0  0  0  0  0  0  0  0  0  0  0
  -14.2466   16.0017  -24.1742 H   0  0  0  0  0  0  0  0  0  0  0  0
  1  2  1  0
  2  3  1  0
  3  4  1  0
  4  5  1  0
  5  6  1  0
  5  7  1  0
  7  8  1  0
  8  9  2  0
  9 10  1  0
 10 11  2  0
 11 12  1  0
 12 13  2  0
 13 14  1  0
 14 15  2  0
 15 16  1  0
  4 17  1  0
  3 18  1  0
  6  2  1  0
 11  7  1  0
 15 10  1  0
  1 19  1  0
  1 20  1  0
  2 21  1  0
  3 22  1  0
  4 23  1  0
  5 24  1  0
  8 25  1  0
 13 26  1  0
 16 27  1  0
 16 28  1  0
 17 29  1  0
 18 30  1  0
M  RAD  1   1   2
M  END
$$$$

     RDKit          3D

 30 32  0  0  0  0  0  0  0  0999 V2000
  -12.4027   15.6020  -24.4151 C   0  0  0  0  0  3  0  0  0  0  0  0
  -13.3258   14.4113  -24.5032 C   0  0  0  0  0  0  0  0  0  0  0  0
  -13.0040   13.4741  -23.3570 C   0  0  0  0  0  0  0  0  0  0  0  0
  -11.5885   13.0684  -23.7881 C   0  0  0  0  0  0  0  0  0  0  0  0
  -11.7793   12.9993  -25.2893 C   0  0  0  0  0  0  0  0  0  0  0  0
  -12.9328   13.6588  -25.6006 O   0  0  0  0  0  0  0  0  0  0  0  0
  -11.9265   11.5939  -25.6587 N   0  0  0  0  0  0  0  0  0  0  0  0
  -13.0451   10.9936  -26.1087 C   0  0  0  0  0  0  0  0  0  0  0  0
  -12.7948    9.6754  -26.3477 N   0  0  0  0  0  0  0  0  0  0  0  0
  -11.5136    9.4257  -26.0516 C   0  0  0  0  0  0  0  0  0  0  0  0
  -10.9782   10.6225  -25.6235 C   0  0  0  0  0  0  0  0  0  0  0  0
   -9.7030   10.6824  -25.2566 N   0  0  0  0  0  0  0  0  0  0  0  0
   -8.9606    9.5662  -25.3122 C   0  0  0  0  0  0  0  0  0  0  0  0
   -9.4607    8.3707  -25.7302 N   0  0  0  0  0  0  0  0  0  0  0  0
  -10.7463    8.2799  -26.1072 C   0  0  0  0  0  0  0  0  0  0  0  0
  -11.2603    7.0282  -26.5422 N   0  0  0  0  0  0  0  0  0  0  0  0
  -10.6851   14.0698  -23.4329 O   0  0  0  0  0  0  0  0  0  0  0  0
  -13.0197   14.0858  -22.1313 O   0  0  0  0  0  0  0  0  0  0  0  0
  -12.6026   16.3578  -25.1859 H   0  0  0  0  0  0  0  0  0  0  0  0
  -12.3329   16.0222  -23.3946 H   0  0  0  0  0  0  0  0  0  0  0  0
  -14.3884   14.6762  -24.5481 H   0  0  0  0  0  0  0  0  0  0  0  0
  -13.6559   12.5755  -23.4217 H   0  0  0  0  0  0  0  0  0  0  0  0
  -11.3179   12.0777  -23.3952 H   0  0  0  0  0  0  0  0  0  0  0  0
  -10.8922   13.4322  -25.8323 H   0  0  0  0  0  0  0  0  0  0  0  0
  -13.9921   11.5155  -26.2487 H   0  0  0  0  0  0  0  0  0  0  0  0
   -7.9131    9.5860  -25.0177 H   0  0  0  0  0  0  0  0  0  0  0  0
  -10.9119    6.1164  -26.1802 H   0  0  0  0  0  0  0  0  0  0  0  0
  -12.0329    7.0131  -27.2672 H   0  0  0  0  0  0  0  0  0  0  0  0
   -9.7719   13.7308  -23.5157 H   0  0  0  0  0  0  0  0  0  0  0  0
  -13.5400   13.4831  -21.5085 H   0  0  0  0  0  0  0  0  0  0  0  0
  1  2  1  0
  2  3  1  0
  3  4  1  0
  4  5  1  0
  5  6  1  0
  5  7  1  0
  7  8  1  0
  8  9  2  0
  9 10  1  0
 10 11  2  0
 11 12  1  0
 12 13  2  0
 13 14  1  0
 14 15  2  0
 15 16  1  0
  4 17  1  0
  3 18  1  0
  6  2  1  0
 11  7  1  0
 15 10  1  0
  1 19  1  0
  1 20  1  0
  2 21  1  0
  3 22  1  0
  4 23  1  0
  5 24  1  0
  8 25  1  0
 13 26  1  0
 16 27  1  0
 16 28  1  0
 17 29  1  0
 18 30  1  0
M  RAD  1   1   2
M  END
$$$$

     RDKit          3D

 30 32  0  0  0  0  0  0  0  0999 V2000
  -13.2125   13.9057  -21.9131 C   0  0  0  0  0  3  0  0  0  0  0  0
  -12.1756   13.9736  -23.0297 C   0  0  0  0  0  0  0  0  0  0  0  0
  -12.7642   14.7838  -24.1393 C   0  0  0  0  0  0  0  0  0  0  0  0
  -12.7188   13.7897  -25.3082 C   0  0  0  0  0  0  0  0  0  0  0  0
  -11.5245   12.9414  -24.8463 C   0  0  0  0  0  0  0  0  0  0  0  0
  -11.8756   12.7152  -23.5286 O   0  0  0  0  0  0  0  0  0  0  0  0
  -11.3642   11.7663  -25.6312 N   0  0  0  0  0  0  0  0  0  0  0  0
  -11.5600   11.7350  -26.9794 C   0  0  0  0  0  0  0  0  0  0  0  0
  -11.3319   10.4873  -27.4290 N   0  0  0  0  0  0  0  0  0  0  0  0
  -10.9911    9.7003  -26.4063 C   0  0  0  0  0  0  0  0  0  0  0  0
  -11.0145   10.5106  -25.2870 C   0  0  0  0  0  0  0  0  0  0  0  0
  -10.7087    9.9807  -24.0919 N   0  0  0  0  0  0  0  0  0  0  0  0
  -10.3837    8.6649  -24.0054 C   0  0  0  0  0  0  0  0  0  0  0  0
  -10.3620    7.8703  -25.1118 N   0  0  0  0  0  0  0  0  0  0  0  0
  -10.6584    8.3492  -26.3246 C   0  0  0  0  0  0  0  0  0  0  0  0
  -10.6381    7.5293  -27.4799 N   0  0  0  0  0  0  0  0  0  0  0  0
  -13.8903   13.0340  -25.2637 O   0  0  0  0  0  0  0  0  0  0  0  0
  -11.9529   15.8708  -24.4806 O   0  0  0  0  0  0  0  0  0  0  0  0
  -12.9187   14.5611  -21.0497 H   0  0  0  0  0  0  0  0  0  0  0  0
  -14.2153   14.2140  -22.2861 H   0  0  0  0  0  0  0  0  0  0  0  0
  -11.2632   14.4505  -22.5781 H   0  0  0  0  0  0  0  0  0  0  0  0
  -13.8113   15.0693  -23.9990 H   0  0  0  0  0  0  0  0  0  0  0  0
  -12.5377   14.2760  -26.2626 H   0  0  0  0  0  0  0  0  0  0  0  0
  -10.6573   13.6236  -24.8523 H   0  0  0  0  0  0  0  0  0  0  0  0
  -11.8557   12.5917  -27.5933 H   0  0  0  0  0  0  0  0  0  0  0  0
  -10.1480    8.2910  -23.0304 H   0  0  0  0  0  0  0  0  0  0  0  0
   -9.8389    6.8890  -27.6469 H   0  0  0  0  0  0  0  0  0  0  0  0
  -11.4044    7.5434  -28.1789 H   0  0  0  0  0  0  0  0  0  0  0  0
  -14.6551   13.6207  -24.9686 H   0  0  0  0  0  0  0  0  0  0  0  0
  -11.0031   15.6714  -24.2293 H   0  0  0  0  0  0  0  0  0  0  0  0
  1  2  1  0
  2  3  1  0
  3  4  1  0
  4  5  1  0
  5  6  1  0
  5  7  1  0
  7  8  1  0
  8  9  2  0
  9 10  1  0
 10 11  2  0
 11 12  1  0
 12 13  2  0
 13 14  1  0
 14 15  2  0
 15 16  1  0
  4 17  1  0
  3 18  1  0
  6  2  1  0
 11  7  1  0
 15 10  1  0
  1 19  1  0
  1 20  1  0
  2 21  1  0
  3 22  1  0
  4 23  1  0
  5 24  1  0
  8 25  1  0
 13 26  1  0
 16 27  1  0
 16 28  1  0
 17 29  1  0
 18 30  1  0
M  RAD  1   1   2
M  END
$$$$

     RDKit          3D

 30 32  0  0  0  0  0  0  0  0999 V2000
  -14.6401   14.1767  -23.8578 C   0  0  0  0  0  3  0  0  0  0  0  0
  -13.3599   13.5082  -24.1948 C   0  0  0  0  0  0  0  0  0  0  0  0
  -12.1625   14.0733  -23.4635 C   0  0  0  0  0  0  0  0  0  0  0  0
  -11.0458   13.4053  -24.2389 C   0  0  0  0  0  0  0  0  0  0  0  0
  -11.6839   13.1792  -25.5811 C   0  0  0  0  0  0  0  0  0  0  0  0
  -12.9555   13.7612  -25.5261 O   0  0  0  0  0  0  0  0  0  0  0  0
  -11.9053   11.7547  -25.8331 N   0  0  0  0  0  0  0  0  0  0  0  0
  -13.0285   11.1613  -26.3061 C   0  0  0  0  0  0  0  0  0  0  0  0
  -12.8548    9.8352  -26.4050 N   0  0  0  0  0  0  0  0  0  0  0  0
  -11.6099    9.5841  -25.9910 C   0  0  0  0  0  0  0  0  0  0  0  0
  -11.0194   10.7814  -25.6348 C   0  0  0  0  0  0  0  0  0  0  0  0
   -9.7492   10.7508  -25.1851 N   0  0  0  0  0  0  0  0  0  0  0  0
   -9.0291    9.6368  -25.0631 C   0  0  0  0  0  0  0  0  0  0  0  0
   -9.6212    8.4679  -25.4164 N   0  0  0  0  0  0  0  0  0  0  0  0
  -10.8771    8.4059  -25.8723 C   0  0  0  0  0  0  0  0  0  0  0  0
  -11.5244    7.2004  -26.2497 N   0  0  0  0  0  0  0  0  0  0  0  0
   -9.9122   14.2067  -24.3152 O   0  0  0  0  0  0  0  0  0  0  0  0
  -12.1480   13.7189  -22.1220 O   0  0  0  0  0  0  0  0  0  0  0  0
  -15.4288   13.4925  -23.4720 H   0  0  0  0  0  0  0  0  0  0  0  0
  -14.5595   15.1192  -23.3190 H   0  0  0  0  0  0  0  0  0  0  0  0
  -13.3692   12.4097  -23.9971 H   0  0  0  0  0  0  0  0  0  0  0  0
  -12.0553   15.1642  -23.6174 H   0  0  0  0  0  0  0  0  0  0  0  0
  -10.8299   12.4136  -23.8029 H   0  0  0  0  0  0  0  0  0  0  0  0
  -11.0591   13.6356  -26.3579 H   0  0  0  0  0  0  0  0  0  0  0  0
  -13.9230   11.7505  -26.5539 H   0  0  0  0  0  0  0  0  0  0  0  0
   -8.0232    9.6891  -24.6976 H   0  0  0  0  0  0  0  0  0  0  0  0
  -11.6729    6.9514  -27.2289 H   0  0  0  0  0  0  0  0  0  0  0  0
  -11.8513    6.5628  -25.5056 H   0  0  0  0  0  0  0  0  0  0  0  0
   -9.1548   13.6206  -24.5153 H   0  0  0  0  0  0  0  0  0  0  0  0
  -11.6845   14.4534  -21.6371 H   0  0  0  0  0  0  0  0  0  0  0  0
  1  2  1  0
  2  3  1  0
  3  4  1  0
  4  5  1  0
  5  6  1  0
  5  7  1  0
  7  8  1  0
  8  9  2  0
  9 10  1  0
 10 11  2  0
 11 12  1  0
 12 13  2  0
 13 14  1  0
 14 15  2  0
 15 16  1  0
  4 17  1  0
  3 18  1  0
  6  2  1  0
 11  7  1  0
 15 10  1  0
  1 19  1  0
  1 20  1  0
  2 21  1  0
  3 22  1  0
  4 23  1  0
  5 24  1  0
  8 25  1  0
 13 26  1  0
 16 27  1  0
 16 28  1  0
 17 29  1  0
 18 30  1  0
M  RAD  1   1   2
M  END
$$$$

     RDKit          3D

 30 32  0  0  0  0  0  0  0  0999 V2000
  -14.1503   14.4939  -22.7792 C   0  0  0  0  0  3  0  0  0  0  0  0
  -13.4573   14.3821  -24.1128 C   0  0  0  0  0  0  0  0  0  0  0  0
  -11.9784   14.6618  -23.9495 C   0  0  0  0  0  0  0  0  0  0  0  0
  -11.2966   13.3770  -24.4274 C   0  0  0  0  0  0  0  0  0  0  0  0
  -12.4661   12.3941  -24.3002 C   0  0  0  0  0  0  0  0  0  0  0  0
  -13.5771   13.1180  -24.6572 O   0  0  0  0  0  0  0  0  0  0  0  0
  -12.2744   11.2511  -25.1554 N   0  0  0  0  0  0  0  0  0  0  0  0
  -13.2210   10.7942  -26.0140 C   0  0  0  0  0  0  0  0  0  0  0  0
  -12.6799    9.7275  -26.6291 N   0  0  0  0  0  0  0  0  0  0  0  0
  -11.4324    9.4965  -26.1915 C   0  0  0  0  0  0  0  0  0  0  0  0
  -11.1813   10.4735  -25.2509 C   0  0  0  0  0  0  0  0  0  0  0  0
   -9.9824   10.4701  -24.6482 N   0  0  0  0  0  0  0  0  0  0  0  0
   -9.0332    9.5423  -24.9416 C   0  0  0  0  0  0  0  0  0  0  0  0
   -9.3151    8.6021  -25.8670 N   0  0  0  0  0  0  0  0  0  0  0  0
  -10.4828    8.5312  -26.5158 C   0  0  0  0  0  0  0  0  0  0  0  0
  -10.7333    7.5250  -27.4804 N   0  0  0  0  0  0  0  0  0  0  0  0
  -10.2430   13.0264  -23.6035 O   0  0  0  0  0  0  0  0  0  0  0  0
  -11.6225   15.7410  -24.7325 O   0  0  0  0  0  0  0  0  0  0  0  0
  -15.1215   13.9283  -22.8444 H   0  0  0  0  0  0  0  0  0  0  0  0
  -13.5607   14.0128  -21.9740 H   0  0  0  0  0  0  0  0  0  0  0  0
  -13.9286   15.0956  -24.8226 H   0  0  0  0  0  0  0  0  0  0  0  0
  -11.7521   14.8489  -22.8682 H   0  0  0  0  0  0  0  0  0  0  0  0
  -10.9677   13.4553  -25.4640 H   0  0  0  0  0  0  0  0  0  0  0  0
  -12.5900   12.0468  -23.2698 H   0  0  0  0  0  0  0  0  0  0  0  0
  -14.2145   11.2293  -26.1534 H   0  0  0  0  0  0  0  0  0  0  0  0
   -8.0774    9.5800  -24.4274 H   0  0  0  0  0  0  0  0  0  0  0  0
  -11.5517    6.8892  -27.4460 H   0  0  0  0  0  0  0  0  0  0  0  0
  -10.0637    7.4154  -28.2652 H   0  0  0  0  0  0  0  0  0  0  0  0
  -10.2864   13.4419  -22.7097 H   0  0  0  0  0  0  0  0  0  0  0  0
  -11.2980   15.4961  -25.6235 H   0  0  0  0  0  0  0  0  0  0  0  0
  1  2  1  0
  2  3  1  0
  3  4  1  0
  4  5  1  0
  5  6  1  0
  5  7  1  0
  7  8  1  0
  8  9  2  0
  9 10  1  0
 10 11  2  0
 11 12  1  0
 12 13  2  0
 13 14  1  0
 14 15  2  0
 15 16  1  0
  4 17  1  0
  3 18  1  0
  6  2  1  0
 11  7  1  0
 15 10  1  0
  1 19  1  0
  1 20  1  0
  2 21  1  0
  3 22  1  0
  4 23  1  0
  5 24  1  0
  8 25  1  0
 13 26  1  0
 16 27  1  0
 16 28  1  0
 17 29  1  0
 18 30  1  0
M  RAD  1   1   2
M  END
$$$$

     RDKit          3D

 30 32  0  0  0  0  0  0  0  0999 V2000
  -11.8729   14.3958  -21.8591 C   0  0  0  0  0  3  0  0  0  0  0  0
  -12.4821   13.7761  -23.0773 C   0  0  0  0  0  0  0  0  0  0  0  0
  -12.6254   14.7627  -24.2134 C   0  0  0  0  0  0  0  0  0  0  0  0
  -12.4661   13.8064  -25.4052 C   0  0  0  0  0  0  0  0  0  0  0  0
  -11.3556   12.9243  -24.8122 C   0  0  0  0  0  0  0  0  0  0  0  0
  -11.8258   12.6736  -23.5512 O   0  0  0  0  0  0  0  0  0  0  0  0
  -11.1898   11.7739  -25.6391 N   0  0  0  0  0  0  0  0  0  0  0  0
  -11.1759   11.8406  -27.0028 C   0  0  0  0  0  0  0  0  0  0  0  0
  -11.0041   10.5969  -27.4470 N   0  0  0  0  0  0  0  0  0  0  0  0
  -10.9103    9.7530  -26.3840 C   0  0  0  0  0  0  0  0  0  0  0  0
  -11.0307   10.5190  -25.2338 C   0  0  0  0  0  0  0  0  0  0  0  0
  -10.9759    9.9516  -24.0197 N   0  0  0  0  0  0  0  0  0  0  0  0
  -10.7986    8.6019  -23.9570 C   0  0  0  0  0  0  0  0  0  0  0  0
  -10.6809    7.8521  -25.0739 N   0  0  0  0  0  0  0  0  0  0  0  0
  -10.7296    8.3769  -26.3109 C   0  0  0  0  0  0  0  0  0  0  0  0
  -10.6064    7.5936  -27.4924 N   0  0  0  0  0  0  0  0  0  0  0  0
  -13.5696   12.9928  -25.5504 O   0  0  0  0  0  0  0  0  0  0  0  0
  -13.8273   15.4168  -24.2267 O   0  0  0  0  0  0  0  0  0  0  0  0
  -11.0784   15.1071  -22.2216 H   0  0  0  0  0  0  0  0  0  0  0  0
  -12.6616   15.0672  -21.4089 H   0  0  0  0  0  0  0  0  0  0  0  0
  -13.5186   13.4406  -22.7838 H   0  0  0  0  0  0  0  0  0  0  0  0
  -11.7364   15.4233  -24.2196 H   0  0  0  0  0  0  0  0  0  0  0  0
  -12.1448   14.3209  -26.3093 H   0  0  0  0  0  0  0  0  0  0  0  0
  -10.4571   13.5890  -24.7756 H   0  0  0  0  0  0  0  0  0  0  0  0
  -11.2831   12.7293  -27.6141 H   0  0  0  0  0  0  0  0  0  0  0  0
  -10.7460    8.0834  -23.0013 H   0  0  0  0  0  0  0  0  0  0  0  0
  -11.3970    7.6198  -28.1807 H   0  0  0  0  0  0  0  0  0  0  0  0
   -9.7702    7.0124  -27.6799 H   0  0  0  0  0  0  0  0  0  0  0  0
  -14.4270   13.4418  -25.5109 H   0  0  0  0  0  0  0  0  0  0  0  0
  -13.6728   16.3048  -24.6826 H   0  0  0  0  0  0  0  0  0  0  0  0
  1  2  1  0
  2  3  1  0
  3  4  1  0
  4  5  1  0
  5  6  1  0
  5  7  1  0
  7  8  1  0
  8  9  2  0
  9 10  1  0
 10 11  2  0
 11 12  1  0
 12 13  2  0
 13 14  1  0
 14 15  2  0
 15 16  1  0
  4 17  1  0
  3 18  1  0
  6  2  1  0
 11  7  1  0
 15 10  1  0
  1 19  1  0
  1 20  1  0
  2 21  1  0
  3 22  1  0
  4 23  1  0
  5 24  1  0
  8 25  1  0
 13 26  1  0
 16 27  1  0
 16 28  1  0
 17 29  1  0
 18 30  1  0
M  RAD  1   1   2
M  END
$$$$

     RDKit          3D

 30 32  0  0  0  0  0  0  0  0999 V2000
  -13.5109   15.7552  -25.3404 C   0  0  0  0  0  3  0  0  0  0  0  0
  -12.5335   14.7761  -24.7849 C   0  0  0  0  0  0  0  0  0  0  0  0
  -13.0484   14.1002  -23.5074 C   0  0  0  0  0  0  0  0  0  0  0  0
  -12.0289   12.9626  -23.4033 C   0  0  0  0  0  0  0  0  0  0  0  0
  -11.6449   12.7615  -24.8394 C   0  0  0  0  0  0  0  0  0  0  0  0
  -12.3835   13.6433  -25.6068 O   0  0  0  0  0  0  0  0  0  0  0  0
  -11.8664   11.3912  -25.2609 N   0  0  0  0  0  0  0  0  0  0  0  0
  -13.0458   10.7667  -25.4183 C   0  0  0  0  0  0  0  0  0  0  0  0
  -12.8576    9.4935  -25.8227 N   0  0  0  0  0  0  0  0  0  0  0  0
  -11.5261    9.3080  -25.9236 C   0  0  0  0  0  0  0  0  0  0  0  0
  -10.8972   10.4831  -25.5763 C   0  0  0  0  0  0  0  0  0  0  0  0
   -9.5613   10.5970  -25.5837 N   0  0  0  0  0  0  0  0  0  0  0  0
   -8.7914    9.5573  -25.9337 C   0  0  0  0  0  0  0  0  0  0  0  0
   -9.3971    8.4057  -26.2745 N   0  0  0  0  0  0  0  0  0  0  0  0
  -10.7225    8.2367  -26.2846 C   0  0  0  0  0  0  0  0  0  0  0  0
  -11.3646    7.0286  -26.6419 N   0  0  0  0  0  0  0  0  0  0  0  0
  -10.9378   13.4013  -22.6304 O   0  0  0  0  0  0  0  0  0  0  0  0
  -13.0090   14.9399  -22.4233 O   0  0  0  0  0  0  0  0  0  0  0  0
  -14.5480   15.6066  -24.9743 H   0  0  0  0  0  0  0  0  0  0  0  0
  -13.2082   16.7734  -24.9578 H   0  0  0  0  0  0  0  0  0  0  0  0
  -11.5577   15.2002  -24.5330 H   0  0  0  0  0  0  0  0  0  0  0  0
  -14.0435   13.6470  -23.6630 H   0  0  0  0  0  0  0  0  0  0  0  0
  -12.4753   12.0462  -22.9904 H   0  0  0  0  0  0  0  0  0  0  0  0
  -10.5663   13.0128  -25.0214 H   0  0  0  0  0  0  0  0  0  0  0  0
  -13.9938   11.2442  -25.2384 H   0  0  0  0  0  0  0  0  0  0  0  0
   -7.6973    9.6326  -25.9454 H   0  0  0  0  0  0  0  0  0  0  0  0
  -11.1293    6.6163  -27.5629 H   0  0  0  0  0  0  0  0  0  0  0  0
  -12.0342    6.6110  -25.9781 H   0  0  0  0  0  0  0  0  0  0  0  0
  -11.2512   13.9284  -21.8408 H   0  0  0  0  0  0  0  0  0  0  0  0
  -13.9579   15.0954  -22.1373 H   0  0  0  0  0  0  0  0  0  0  0  0
  1  2  1  0
  2  3  1  0
  3  4  1  0
  4  5  1  0
  5  6  1  0
  5  7  1  0
  7  8  1  0
  8  9  2  0
  9 10  1  0
 10 11  2  0
 11 12  1  0
 12 13  2  0
 13 14  1  0
 14 15  2  0
 15 16  1  0
  4 17  1  0
  3 18  1  0
  6  2  1  0
 11  7  1  0
 15 10  1  0
  1 19  1  0
  1 20  1  0
  2 21  1  0
  3 22  1  0
  4 23  1  0
  5 24  1  0
  8 25  1  0
 13 26  1  0
 16 27  1  0
 16 28  1  0
 17 29  1  0
 18 30  1  0
M  RAD  1   1   2
M  END
$$$$

     RDKit          3D

 30 32  0  0  0  0  0  0  0  0999 V2000
  -13.7577   15.5155  -24.8973 C   0  0  0  0  0  3  0  0  0  0  0  0
  -13.3421   14.3758  -23.9871 C   0  0  0  0  0  0  0  0  0  0  0  0
  -11.8927   14.5646  -23.6193 C   0  0  0  0  0  0  0  0  0  0  0  0
  -11.2606   13.3070  -24.2134 C   0  0  0  0  0  0  0  0  0  0  0  0
  -12.4361   12.3421  -24.1147 C   0  0  0  0  0  0  0  0  0  0  0  0
  -13.4729   13.1472  -24.5872 O   0  0  0  0  0  0  0  0  0  0  0  0
  -12.2500   11.1948  -24.9705 N   0  0  0  0  0  0  0  0  0  0  0  0
  -13.2209   10.6561  -25.7301 C   0  0  0  0  0  0  0  0  0  0  0  0
  -12.7480    9.5999  -26.4160 N   0  0  0  0  0  0  0  0  0  0  0  0
  -11.4495    9.4542  -26.0938 C   0  0  0  0  0  0  0  0  0  0  0  0
  -11.1588   10.4567  -25.1927 C   0  0  0  0  0  0  0  0  0  0  0  0
   -9.8984   10.5624  -24.6820 N   0  0  0  0  0  0  0  0  0  0  0  0
   -8.9731    9.6715  -25.0826 C   0  0  0  0  0  0  0  0  0  0  0  0
   -9.2542    8.6926  -25.9615 N   0  0  0  0  0  0  0  0  0  0  0  0
  -10.4953    8.5400  -26.5033 C   0  0  0  0  0  0  0  0  0  0  0  0
  -10.7701    7.5045  -27.4254 N   0  0  0  0  0  0  0  0  0  0  0  0
  -10.9714   13.4879  -25.5531 O   0  0  0  0  0  0  0  0  0  0  0  0
  -11.7752   14.5352  -22.2261 O   0  0  0  0  0  0  0  0  0  0  0  0
  -14.6662   15.2697  -25.4772 H   0  0  0  0  0  0  0  0  0  0  0  0
  -12.8954   15.7755  -25.5439 H   0  0  0  0  0  0  0  0  0  0  0  0
  -13.9846   14.3935  -23.0886 H   0  0  0  0  0  0  0  0  0  0  0  0
  -11.4702   15.4782  -24.0652 H   0  0  0  0  0  0  0  0  0  0  0  0
  -10.3988   12.9570  -23.6203 H   0  0  0  0  0  0  0  0  0  0  0  0
  -12.5871   12.0400  -23.0703 H   0  0  0  0  0  0  0  0  0  0  0  0
  -14.2579   11.0173  -25.7914 H   0  0  0  0  0  0  0  0  0  0  0  0
   -7.9436    9.7197  -24.6960 H   0  0  0  0  0  0  0  0  0  0  0  0
  -11.6742    7.0277  -27.4141 H   0  0  0  0  0  0  0  0  0  0  0  0
  -10.0393    7.2419  -28.1080 H   0  0  0  0  0  0  0  0  0  0  0  0
  -11.8335   13.3940  -26.0577 H   0  0  0  0  0  0  0  0  0  0  0  0
  -12.6126   14.2294  -21.7953 H   0  0  0  0  0  0  0  0  0  0  0  0
  1  2  1  0
  2  3  1  0
  3  4  1  0
  4  5  1  0
  5  6  1  0
  5  7  1  0
  7  8  1  0
  8  9  2  0
  9 10  1  0
 10 11  2  0
 11 12  1  0
 12 13  2  0
 13 14  1  0
 14 15  2  0
 15 16  1  0
  4 17  1  0
  3 18  1  0
  6  2  1  0
 11  7  1  0
 15 10  1  0
  1 19  1  0
  1 20  1  0
  2 21  1  0
  3 22  1  0
  4 23  1  0
  5 24  1  0
  8 25  1  0
 13 26  1  0
 16 27  1  0
 16 28  1  0
 17 29  1  0
 18 30  1  0
M  RAD  1   1   2
M  END
$$$$

     RDKit          3D

 30 32  0  0  0  0  0  0  0  0999 V2000
  -14.2703   15.1654  -24.4310 C   0  0  0  0  0  3  0  0  0  0  0  0
  -13.2828   14.2472  -23.7802 C   0  0  0  0  0  0  0  0  0  0  0  0
  -11.8468   14.6531  -24.0133 C   0  0  0  0  0  0  0  0  0  0  0  0
  -11.2315   13.3231  -24.4174 C   0  0  0  0  0  0  0  0  0  0  0  0
  -12.3996   12.7519  -25.1900 C   0  0  0  0  0  0  0  0  0  0  0  0
  -13.4487   12.9817  -24.2773 O   0  0  0  0  0  0  0  0  0  0  0  0
  -12.2684   11.3893  -25.5389 N   0  0  0  0  0  0  0  0  0  0  0  0
  -13.2951   10.5679  -25.8291 C   0  0  0  0  0  0  0  0  0  0  0  0
  -12.8107    9.3289  -26.1200 N   0  0  0  0  0  0  0  0  0  0  0  0
  -11.4881    9.3753  -26.0124 C   0  0  0  0  0  0  0  0  0  0  0  0
  -11.1513   10.6632  -25.6493 C   0  0  0  0  0  0  0  0  0  0  0  0
   -9.8737   10.9874  -25.4718 N   0  0  0  0  0  0  0  0  0  0  0  0
   -8.9000   10.0613  -25.6452 C   0  0  0  0  0  0  0  0  0  0  0  0
   -9.2403    8.8068  -25.9997 N   0  0  0  0  0  0  0  0  0  0  0  0
  -10.5021    8.4110  -26.1949 C   0  0  0  0  0  0  0  0  0  0  0  0
  -10.8617    7.0922  -26.5678 N   0  0  0  0  0  0  0  0  0  0  0  0
  -11.0067   12.6210  -23.2423 O   0  0  0  0  0  0  0  0  0  0  0  0
  -11.2493   15.1814  -22.8756 O   0  0  0  0  0  0  0  0  0  0  0  0
  -15.0458   14.6009  -24.9860 H   0  0  0  0  0  0  0  0  0  0  0  0
  -13.8225   15.9888  -25.0003 H   0  0  0  0  0  0  0  0  0  0  0  0
  -13.5102   14.2241  -22.6959 H   0  0  0  0  0  0  0  0  0  0  0  0
  -11.7693   15.3303  -24.8890 H   0  0  0  0  0  0  0  0  0  0  0  0
  -10.3290   13.4460  -25.0400 H   0  0  0  0  0  0  0  0  0  0  0  0
  -12.5956   13.4385  -26.0415 H   0  0  0  0  0  0  0  0  0  0  0  0
  -14.3436   10.8547  -25.8293 H   0  0  0  0  0  0  0  0  0  0  0  0
   -7.8470   10.3053  -25.5050 H   0  0  0  0  0  0  0  0  0  0  0  0
  -10.3652    6.6696  -27.3835 H   0  0  0  0  0  0  0  0  0  0  0  0
  -11.5957    6.6150  -26.0155 H   0  0  0  0  0  0  0  0  0  0  0  0
  -10.5734   13.1395  -22.5370 H   0  0  0  0  0  0  0  0  0  0  0  0
  -10.5937   15.8619  -23.1580 H   0  0  0  0  0  0  0  0  0  0  0  0
  1  2  1  0
  2  3  1  0
  3  4  1  0
  4  5  1  0
  5  6  1  0
  5  7  1  0
  7  8  1  0
  8  9  2  0
  9 10  1  0
 10 11  2  0
 11 12  1  0
 12 13  2  0
 13 14  1  0
 14 15  2  0
 15 16  1  0
  4 17  1  0
  3 18  1  0
  6  2  1  0
 11  7  1  0
 15 10  1  0
  1 19  1  0
  1 20  1  0
  2 21  1  0
  3 22  1  0
  4 23  1  0
  5 24  1  0
  8 25  1  0
 13 26  1  0
 16 27  1  0
 16 28  1  0
 17 29  1  0
 18 30  1  0
M  RAD  1   1   2
M  END
$$$$

     RDKit          3D

 30 32  0  0  0  0  0  0  0  0999 V2000
  -11.7275   14.5198  -22.0295 C   0  0  0  0  0  3  0  0  0  0  0  0
  -12.5436   13.6802  -22.9788 C   0  0  0  0  0  0  0  0  0  0  0  0
  -13.2575   14.5123  -24.0116 C   0  0  0  0  0  0  0  0  0  0  0  0
  -12.9425   13.7212  -25.2902 C   0  0  0  0  0  0  0  0  0  0  0  0
  -12.5572   12.4026  -24.6916 C   0  0  0  0  0  0  0  0  0  0  0  0
  -11.6757   12.8319  -23.6696 O   0  0  0  0  0  0  0  0  0  0  0  0
  -11.9549   11.4925  -25.5913 N   0  0  0  0  0  0  0  0  0  0  0  0
  -11.8038   11.6558  -26.9137 C   0  0  0  0  0  0  0  0  0  0  0  0
  -11.1780   10.5452  -27.3852 N   0  0  0  0  0  0  0  0  0  0  0  0
  -10.9261    9.6753  -26.3912 C   0  0  0  0  0  0  0  0  0  0  0  0
  -11.4337   10.3047  -25.2485 C   0  0  0  0  0  0  0  0  0  0  0  0
  -11.3053    9.6276  -24.0876 N   0  0  0  0  0  0  0  0  0  0  0  0
  -10.7368    8.4344  -24.0005 C   0  0  0  0  0  0  0  0  0  0  0  0
  -10.2542    7.8430  -25.1063 N   0  0  0  0  0  0  0  0  0  0  0  0
  -10.3288    8.4315  -26.3273 C   0  0  0  0  0  0  0  0  0  0  0  0
   -9.8290    7.8276  -27.4963 N   0  0  0  0  0  0  0  0  0  0  0  0
  -11.8629   14.2935  -25.9547 O   0  0  0  0  0  0  0  0  0  0  0  0
  -12.8094   15.8089  -24.0822 O   0  0  0  0  0  0  0  0  0  0  0  0
  -12.2970   15.3295  -21.5742 H   0  0  0  0  0  0  0  0  0  0  0  0
  -11.3767   13.8474  -21.2190 H   0  0  0  0  0  0  0  0  0  0  0  0
  -13.2357   13.0120  -22.4155 H   0  0  0  0  0  0  0  0  0  0  0  0
  -14.3705   14.4342  -23.8907 H   0  0  0  0  0  0  0  0  0  0  0  0
  -13.8139   13.6398  -25.9462 H   0  0  0  0  0  0  0  0  0  0  0  0
  -13.4446   12.0071  -24.1516 H   0  0  0  0  0  0  0  0  0  0  0  0
  -12.1094   12.5011  -27.5310 H   0  0  0  0  0  0  0  0  0  0  0  0
  -10.6754    7.9617  -23.0286 H   0  0  0  0  0  0  0  0  0  0  0  0
   -8.9245    8.1314  -27.8806 H   0  0  0  0  0  0  0  0  0  0  0  0
  -10.3656    7.0857  -27.9644 H   0  0  0  0  0  0  0  0  0  0  0  0
  -11.3973   14.8636  -25.2950 H   0  0  0  0  0  0  0  0  0  0  0  0
  -13.4219   16.3090  -24.6705 H   0  0  0  0  0  0  0  0  0  0  0  0
  1  2  1  0
  2  3  1  0
  3  4  1  0
  4  5  1  0
  5  6  1  0
  5  7  1  0
  7  8  1  0
  8  9  2  0
  9 10  1  0
 10 11  2  0
 11 12  1  0
 12 13  2  0
 13 14  1  0
 14 15  2  0
 15 16  1  0
  4 17  1  0
  3 18  1  0
  6  2  1  0
 11  7  1  0
 15 10  1  0
  1 19  1  0
  1 20  1  0
  2 21  1  0
  3 22  1  0
  4 23  1  0
  5 24  1  0
  8 25  1  0
 13 26  1  0
 16 27  1  0
 16 28  1  0
 17 29  1  0
 18 30  1  0
M  RAD  1   1   2
M  END
$$$$

     RDKit          3D

 30 32  0  0  0  0  0  0  0  0999 V2000
  -14.1933   14.3511  -22.5859 C   0  0  0  0  0  3  0  0  0  0  0  0
  -12.8375   14.0448  -23.1153 C   0  0  0  0  0  0  0  0  0  0  0  0
  -12.5387   14.7848  -24.4240 C   0  0  0  0  0  0  0  0  0  0  0  0
  -11.3126   14.0057  -24.8758 C   0  0  0  0  0  0  0  0  0  0  0  0
  -11.5743   12.6487  -24.3093 C   0  0  0  0  0  0  0  0  0  0  0  0
  -12.7453   12.7103  -23.5699 O   0  0  0  0  0  0  0  0  0  0  0  0
  -11.6106   11.6024  -25.3133 N   0  0  0  0  0  0  0  0  0  0  0  0
  -12.2164   11.6307  -26.5148 C   0  0  0  0  0  0  0  0  0  0  0  0
  -12.0175   10.4633  -27.1504 N   0  0  0  0  0  0  0  0  0  0  0  0
  -11.2818    9.6569  -26.3780 C   0  0  0  0  0  0  0  0  0  0  0  0
  -11.0285   10.3829  -25.2194 C   0  0  0  0  0  0  0  0  0  0  0  0
  -10.3002    9.7884  -24.2734 N   0  0  0  0  0  0  0  0  0  0  0  0
   -9.8019    8.5431  -24.3720 C   0  0  0  0  0  0  0  0  0  0  0  0
  -10.0479    7.8422  -25.4935 N   0  0  0  0  0  0  0  0  0  0  0  0
  -10.7758    8.3772  -26.4915 C   0  0  0  0  0  0  0  0  0  0  0  0
  -11.0202    7.6168  -27.6628 N   0  0  0  0  0  0  0  0  0  0  0  0
  -10.1959   14.5847  -24.2502 O   0  0  0  0  0  0  0  0  0  0  0  0
  -13.6286   14.5740  -25.2564 O   0  0  0  0  0  0  0  0  0  0  0  0
  -14.6213   15.2591  -23.0834 H   0  0  0  0  0  0  0  0  0  0  0  0
  -14.1513   14.5063  -21.4680 H   0  0  0  0  0  0  0  0  0  0  0  0
  -12.0045   14.2794  -22.4359 H   0  0  0  0  0  0  0  0  0  0  0  0
  -12.3212   15.8506  -24.2454 H   0  0  0  0  0  0  0  0  0  0  0  0
  -11.2188   14.0279  -25.9759 H   0  0  0  0  0  0  0  0  0  0  0  0
  -10.7597   12.3909  -23.5701 H   0  0  0  0  0  0  0  0  0  0  0  0
  -12.7859   12.4427  -26.9457 H   0  0  0  0  0  0  0  0  0  0  0  0
   -9.2202    8.1367  -23.5556 H   0  0  0  0  0  0  0  0  0  0  0  0
  -11.4240    6.6669  -27.5910 H   0  0  0  0  0  0  0  0  0  0  0  0
  -10.7819    8.0443  -28.5743 H   0  0  0  0  0  0  0  0  0  0  0  0
   -9.6707   13.8859  -23.7735 H   0  0  0  0  0  0  0  0  0  0  0  0
  -13.4520   14.8719  -26.1889 H   0  0  0  0  0  0  0  0  0  0  0  0
  1  2  1  0
  2  3  1  0
  3  4  1  0
  4  5  1  0
  5  6  1  0
  5  7  1  0
  7  8  1  0
  8  9  2  0
  9 10  1  0
 10 11  2  0
 11 12  1  0
 12 13  2  0
 13 14  1  0
 14 15  2  0
 15 16  1  0
  4 17  1  0
  3 18  1  0
  6  2  1  0
 11  7  1  0
 15 10  1  0
  1 19  1  0
  1 20  1  0
  2 21  1  0
  3 22  1  0
  4 23  1  0
  5 24  1  0
  8 25  1  0
 13 26  1  0
 16 27  1  0
 16 28  1  0
 17 29  1  0
 18 30  1  0
M  RAD  1   1   2
M  END
$$$$

     RDKit          3D

 30 32  0  0  0  0  0  0  0  0999 V2000
  -12.1008   15.8853  -25.1609 C   0  0  0  0  0  3  0  0  0  0  0  0
  -12.7535   14.6135  -24.7698 C   0  0  0  0  0  0  0  0  0  0  0  0
  -12.6247   14.2567  -23.3222 C   0  0  0  0  0  0  0  0  0  0  0  0
  -12.6786   12.7240  -23.3759 C   0  0  0  0  0  0  0  0  0  0  0  0
  -12.9629   12.4760  -24.8176 C   0  0  0  0  0  0  0  0  0  0  0  0
  -12.2167   13.4924  -25.4435 O   0  0  0  0  0  0  0  0  0  0  0  0
  -12.5683   11.1625  -25.2752 N   0  0  0  0  0  0  0  0  0  0  0  0
  -13.4366   10.1728  -25.5144 C   0  0  0  0  0  0  0  0  0  0  0  0
  -12.7865    9.0814  -25.9237 N   0  0  0  0  0  0  0  0  0  0  0  0
  -11.4784    9.3690  -25.9498 C   0  0  0  0  0  0  0  0  0  0  0  0
  -11.3544   10.6760  -25.5413 C   0  0  0  0  0  0  0  0  0  0  0  0
  -10.1414   11.2193  -25.4767 N   0  0  0  0  0  0  0  0  0  0  0  0
   -9.0432   10.5095  -25.8041 C   0  0  0  0  0  0  0  0  0  0  0  0
   -9.1665    9.2370  -26.2016 N   0  0  0  0  0  0  0  0  0  0  0  0
  -10.3693    8.6214  -26.2903 C   0  0  0  0  0  0  0  0  0  0  0  0
  -10.5144    7.2778  -26.7086 N   0  0  0  0  0  0  0  0  0  0  0  0
  -11.4762   12.1868  -22.9475 O   0  0  0  0  0  0  0  0  0  0  0  0
  -11.4546   14.6465  -22.7329 O   0  0  0  0  0  0  0  0  0  0  0  0
  -12.8414   16.6501  -25.5307 H   0  0  0  0  0  0  0  0  0  0  0  0
  -11.5303   16.3899  -24.3615 H   0  0  0  0  0  0  0  0  0  0  0  0
  -13.8424   14.6076  -25.0377 H   0  0  0  0  0  0  0  0  0  0  0  0
  -13.5237   14.5977  -22.7510 H   0  0  0  0  0  0  0  0  0  0  0  0
  -13.4910   12.3286  -22.7621 H   0  0  0  0  0  0  0  0  0  0  0  0
  -14.0119   12.6750  -25.0509 H   0  0  0  0  0  0  0  0  0  0  0  0
  -14.5296   10.2516  -25.3901 H   0  0  0  0  0  0  0  0  0  0  0  0
   -8.0494   10.9269  -25.7601 H   0  0  0  0  0  0  0  0  0  0  0  0
  -10.4448    7.0567  -27.7147 H   0  0  0  0  0  0  0  0  0  0  0  0
  -10.6868    6.5197  -26.0366 H   0  0  0  0  0  0  0  0  0  0  0  0
  -11.3729   12.4046  -21.9910 H   0  0  0  0  0  0  0  0  0  0  0  0
  -10.7150   14.8269  -23.3346 H   0  0  0  0  0  0  0  0  0  0  0  0
  1  2  1  0
  2  3  1  0
  3  4  1  0
  4  5  1  0
  5  6  1  0
  5  7  1  0
  7  8  1  0
  8  9  2  0
  9 10  1  0
 10 11  2  0
 11 12  1  0
 12 13  2  0
 13 14  1  0
 14 15  2  0
 15 16  1  0
  4 17  1  0
  3 18  1  0
  6  2  1  0
 11  7  1  0
 15 10  1  0
  1 19  1  0
  1 20  1  0
  2 21  1  0
  3 22  1  0
  4 23  1  0
  5 24  1  0
  8 25  1  0
 13 26  1  0
 16 27  1  0
 16 28  1  0
 17 29  1  0
 18 30  1  0
M  RAD  1   1   2
M  END
$$$$

     RDKit          3D

 30 32  0  0  0  0  0  0  0  0999 V2000
  -13.9212   13.8646  -22.6775 C   0  0  0  0  0  3  0  0  0  0  0  0
  -12.4204   13.7827  -22.9585 C   0  0  0  0  0  0  0  0  0  0  0  0
  -11.9863   14.8780  -23.8959 C   0  0  0  0  0  0  0  0  0  0  0  0
  -11.7675   14.0785  -25.1908 C   0  0  0  0  0  0  0  0  0  0  0  0
  -11.2824   12.7793  -24.6004 C   0  0  0  0  0  0  0  0  0  0  0  0
  -12.1705   12.5761  -23.5662 O   0  0  0  0  0  0  0  0  0  0  0  0
  -11.3251   11.6898  -25.5482 N   0  0  0  0  0  0  0  0  0  0  0  0
  -11.7062   11.6875  -26.8351 C   0  0  0  0  0  0  0  0  0  0  0  0
  -11.5860   10.4370  -27.3519 N   0  0  0  0  0  0  0  0  0  0  0  0
  -11.1252    9.6541  -26.3753 C   0  0  0  0  0  0  0  0  0  0  0  0
  -10.9626   10.4391  -25.2478 C   0  0  0  0  0  0  0  0  0  0  0  0
  -10.4976    9.8335  -24.1261 N   0  0  0  0  0  0  0  0  0  0  0  0
  -10.1975    8.5250  -24.0790 C   0  0  0  0  0  0  0  0  0  0  0  0
  -10.3580    7.7700  -25.1774 N   0  0  0  0  0  0  0  0  0  0  0  0
  -10.8207    8.3213  -26.3313 C   0  0  0  0  0  0  0  0  0  0  0  0
  -10.9969    7.5456  -27.4977 N   0  0  0  0  0  0  0  0  0  0  0  0
  -13.0345   13.9107  -25.7473 O   0  0  0  0  0  0  0  0  0  0  0  0
  -12.9684   15.8351  -24.0496 O   0  0  0  0  0  0  0  0  0  0  0  0
  -14.1267   13.7595  -21.5896 H   0  0  0  0  0  0  0  0  0  0  0  0
  -14.2974   14.8439  -23.0586 H   0  0  0  0  0  0  0  0  0  0  0  0
  -11.8666   13.8127  -21.9868 H   0  0  0  0  0  0  0  0  0  0  0  0
  -11.0141   15.3031  -23.5342 H   0  0  0  0  0  0  0  0  0  0  0  0
  -11.0555   14.5632  -25.8528 H   0  0  0  0  0  0  0  0  0  0  0  0
  -10.2548   12.9490  -24.2084 H   0  0  0  0  0  0  0  0  0  0  0  0
  -12.0601   12.5556  -27.3885 H   0  0  0  0  0  0  0  0  0  0  0  0
   -9.8263    8.0380  -23.1864 H   0  0  0  0  0  0  0  0  0  0  0  0
  -11.6216    6.7228  -27.4736 H   0  0  0  0  0  0  0  0  0  0  0  0
  -10.5128    7.7828  -28.3804 H   0  0  0  0  0  0  0  0  0  0  0  0
  -13.4662   13.0536  -25.4404 H   0  0  0  0  0  0  0  0  0  0  0  0
  -12.5432   16.7178  -24.1794 H   0  0  0  0  0  0  0  0  0  0  0  0
  1  2  1  0
  2  3  1  0
  3  4  1  0
  4  5  1  0
  5  6  1  0
  5  7  1  0
  7  8  1  0
  8  9  2  0
  9 10  1  0
 10 11  2  0
 11 12  1  0
 12 13  2  0
 13 14  1  0
 14 15  2  0
 15 16  1  0
  4 17  1  0
  3 18  1  0
  6  2  1  0
 11  7  1  0
 15 10  1  0
  1 19  1  0
  1 20  1  0
  2 21  1  0
  3 22  1  0
  4 23  1  0
  5 24  1  0
  8 25  1  0
 13 26  1  0
 16 27  1  0
 16 28  1  0
 17 29  1  0
 18 30  1  0
M  RAD  1   1   2
M  END
$$$$

     RDKit          3D

 30 32  0  0  0  0  0  0  0  0999 V2000
  -11.6538   14.5165  -21.9869 C   0  0  0  0  0  3  0  0  0  0  0  0
  -12.5055   13.7256  -22.9503 C   0  0  0  0  0  0  0  0  0  0  0  0
  -12.8983   14.6606  -24.0732 C   0  0  0  0  0  0  0  0  0  0  0  0
  -12.5506   13.8330  -25.2959 C   0  0  0  0  0  0  0  0  0  0  0  0
  -12.5853   12.4249  -24.6883 C   0  0  0  0  0  0  0  0  0  0  0  0
  -11.8516   12.6542  -23.5081 O   0  0  0  0  0  0  0  0  0  0  0  0
  -11.9489   11.5061  -25.5701 N   0  0  0  0  0  0  0  0  0  0  0  0
  -11.7681   11.6722  -26.8898 C   0  0  0  0  0  0  0  0  0  0  0  0
  -11.1241   10.5720  -27.3558 N   0  0  0  0  0  0  0  0  0  0  0  0
  -10.8940    9.7106  -26.3497 C   0  0  0  0  0  0  0  0  0  0  0  0
  -11.4242   10.3186  -25.2208 C   0  0  0  0  0  0  0  0  0  0  0  0
  -11.3094    9.6275  -24.0646 N   0  0  0  0  0  0  0  0  0  0  0  0
  -10.7073    8.4139  -24.0369 C   0  0  0  0  0  0  0  0  0  0  0  0
  -10.1986    7.8412  -25.1469 N   0  0  0  0  0  0  0  0  0  0  0  0
  -10.2822    8.4727  -26.3101 C   0  0  0  0  0  0  0  0  0  0  0  0
   -9.7418    7.8617  -27.4823 N   0  0  0  0  0  0  0  0  0  0  0  0
  -13.4696   13.9479  -26.3073 O   0  0  0  0  0  0  0  0  0  0  0  0
  -12.2138   15.8488  -24.0192 O   0  0  0  0  0  0  0  0  0  0  0  0
  -12.3522   15.1954  -21.4370 H   0  0  0  0  0  0  0  0  0  0  0  0
  -11.0796   13.9069  -21.2923 H   0  0  0  0  0  0  0  0  0  0  0  0
  -13.3983   13.3372  -22.4186 H   0  0  0  0  0  0  0  0  0  0  0  0
  -13.9977   14.7977  -24.0385 H   0  0  0  0  0  0  0  0  0  0  0  0
  -11.5001   14.0455  -25.6138 H   0  0  0  0  0  0  0  0  0  0  0  0
  -13.6084   12.1843  -24.4097 H   0  0  0  0  0  0  0  0  0  0  0  0
  -12.0657   12.5115  -27.5032 H   0  0  0  0  0  0  0  0  0  0  0  0
  -10.6079    7.8426  -23.1034 H   0  0  0  0  0  0  0  0  0  0  0  0
   -9.8971    6.8600  -27.7293 H   0  0  0  0  0  0  0  0  0  0  0  0
   -9.1559    8.4265  -28.1445 H   0  0  0  0  0  0  0  0  0  0  0  0
  -13.1251   14.6095  -26.9570 H   0  0  0  0  0  0  0  0  0  0  0  0
  -12.0841   16.2712  -24.8915 H   0  0  0  0  0  0  0  0  0  0  0  0
  1  2  1  0
  2  3  1  0
  3  4  1  0
  4  5  1  0
  5  6  1  0
  5  7  1  0
  7  8  1  0
  8  9  2  0
  9 10  1  0
 10 11  2  0
 11 12  1  0
 12 13  2  0
 13 14  1  0
 14 15  2  0
 15 16  1  0
  4 17  1  0
  3 18  1  0
  6  2  1  0
 11  7  1  0
 15 10  1  0
  1 19  1  0
  1 20  1  0
  2 21  1  0
  3 22  1  0
  4 23  1  0
  5 24  1  0
  8 25  1  0
 13 26  1  0
 16 27  1  0
 16 28  1  0
 17 29  1  0
 18 30  1  0
M  RAD  1   1   2
M  END
$$$$

     RDKit          3D

 30 32  0  0  0  0  0  0  0  0999 V2000
  -12.6607   13.7269  -21.8524 C   0  0  0  0  0  3  0  0  0  0  0  0
  -13.0818   13.8582  -23.3044 C   0  0  0  0  0  0  0  0  0  0  0  0
  -12.1073   14.7387  -24.0474 C   0  0  0  0  0  0  0  0  0  0  0  0
  -11.3914   13.7121  -24.9132 C   0  0  0  0  0  0  0  0  0  0  0  0
  -12.5641   12.7720  -25.1603 C   0  0  0  0  0  0  0  0  0  0  0  0
  -13.0468   12.6112  -23.8698 O   0  0  0  0  0  0  0  0  0  0  0  0
  -12.2108   11.5775  -25.8230 N   0  0  0  0  0  0  0  0  0  0  0  0
  -12.6885   11.1874  -27.0256 C   0  0  0  0  0  0  0  0  0  0  0  0
  -12.1810   10.0225  -27.4011 N   0  0  0  0  0  0  0  0  0  0  0  0
  -11.3458    9.6456  -26.4069 C   0  0  0  0  0  0  0  0  0  0  0  0
  -11.3714   10.6197  -25.4301 C   0  0  0  0  0  0  0  0  0  0  0  0
  -10.6128   10.4610  -24.3349 N   0  0  0  0  0  0  0  0  0  0  0  0
   -9.8197    9.3963  -24.1306 C   0  0  0  0  0  0  0  0  0  0  0  0
   -9.7942    8.4459  -25.0829 N   0  0  0  0  0  0  0  0  0  0  0  0
  -10.5323    8.5492  -26.2020 C   0  0  0  0  0  0  0  0  0  0  0  0
  -10.5263    7.5600  -27.2274 N   0  0  0  0  0  0  0  0  0  0  0  0
  -10.4225   13.1222  -24.1062 O   0  0  0  0  0  0  0  0  0  0  0  0
  -12.7695   15.6018  -24.9377 O   0  0  0  0  0  0  0  0  0  0  0  0
  -11.7317   14.3246  -21.6879 H   0  0  0  0  0  0  0  0  0  0  0  0
  -13.4725   14.0279  -21.1594 H   0  0  0  0  0  0  0  0  0  0  0  0
  -14.1145   14.3115  -23.3276 H   0  0  0  0  0  0  0  0  0  0  0  0
  -11.4165   15.2778  -23.3766 H   0  0  0  0  0  0  0  0  0  0  0  0
  -10.9968   14.1368  -25.8416 H   0  0  0  0  0  0  0  0  0  0  0  0
  -13.3166   13.3586  -25.7171 H   0  0  0  0  0  0  0  0  0  0  0  0
  -13.4074   11.7457  -27.6366 H   0  0  0  0  0  0  0  0  0  0  0  0
   -9.2048    9.2592  -23.2517 H   0  0  0  0  0  0  0  0  0  0  0  0
  -10.8084    6.5741  -27.0271 H   0  0  0  0  0  0  0  0  0  0  0  0
  -10.2341    7.8350  -28.1895 H   0  0  0  0  0  0  0  0  0  0  0  0
   -9.6401   13.7303  -24.1234 H   0  0  0  0  0  0  0  0  0  0  0  0
  -13.6933   15.3094  -25.0744 H   0  0  0  0  0  0  0  0  0  0  0  0
  1  2  1  0
  2  3  1  0
  3  4  1  0
  4  5  1  0
  5  6  1  0
  5  7  1  0
  7  8  1  0
  8  9  2  0
  9 10  1  0
 10 11  2  0
 11 12  1  0
 12 13  2  0
 13 14  1  0
 14 15  2  0
 15 16  1  0
  4 17  1  0
  3 18  1  0
  6  2  1  0
 11  7  1  0
 15 10  1  0
  1 19  1  0
  1 20  1  0
  2 21  1  0
  3 22  1  0
  4 23  1  0
  5 24  1  0
  8 25  1  0
 13 26  1  0
 16 27  1  0
 16 28  1  0
 17 29  1  0
 18 30  1  0
M  RAD  1   1   2
M  END
$$$$

     RDKit          3D

 30 32  0  0  0  0  0  0  0  0999 V2000
  -14.0826   13.9808  -22.5147 C   0  0  0  0  0  3  0  0  0  0  0  0
  -13.2673   14.0027  -23.7518 C   0  0  0  0  0  0  0  0  0  0  0  0
  -11.7933   13.8847  -23.3457 C   0  0  0  0  0  0  0  0  0  0  0  0
  -11.1746   13.5218  -24.6924 C   0  0  0  0  0  0  0  0  0  0  0  0
  -12.2943   12.8855  -25.4042 C   0  0  0  0  0  0  0  0  0  0  0  0
  -13.4287   12.9252  -24.5757 O   0  0  0  0  0  0  0  0  0  0  0  0
  -12.0828   11.5684  -25.8843 N   0  0  0  0  0  0  0  0  0  0  0  0
  -12.7933   11.0306  -26.8936 C   0  0  0  0  0  0  0  0  0  0  0  0
  -12.3879    9.7875  -27.1362 N   0  0  0  0  0  0  0  0  0  0  0  0
  -11.4009    9.4888  -26.2861 C   0  0  0  0  0  0  0  0  0  0  0  0
  -11.2195   10.6123  -25.5078 C   0  0  0  0  0  0  0  0  0  0  0  0
  -10.2869   10.5830  -24.5707 N   0  0  0  0  0  0  0  0  0  0  0  0
   -9.5227    9.4945  -24.3649 C   0  0  0  0  0  0  0  0  0  0  0  0
   -9.7087    8.4034  -25.1308 N   0  0  0  0  0  0  0  0  0  0  0  0
  -10.6396    8.3476  -26.1111 C   0  0  0  0  0  0  0  0  0  0  0  0
  -10.8452    7.2149  -26.9192 N   0  0  0  0  0  0  0  0  0  0  0  0
  -10.8003   14.7569  -25.2724 O   0  0  0  0  0  0  0  0  0  0  0  0
  -11.3985   15.1195  -22.8944 O   0  0  0  0  0  0  0  0  0  0  0  0
  -14.5926   13.0219  -22.3068 H   0  0  0  0  0  0  0  0  0  0  0  0
  -14.7498   14.8565  -22.3888 H   0  0  0  0  0  0  0  0  0  0  0  0
  -13.3756   14.9223  -24.3461 H   0  0  0  0  0  0  0  0  0  0  0  0
  -11.6930   13.0817  -22.6090 H   0  0  0  0  0  0  0  0  0  0  0  0
  -10.2657   12.9583  -24.5532 H   0  0  0  0  0  0  0  0  0  0  0  0
  -12.5609   13.5429  -26.2803 H   0  0  0  0  0  0  0  0  0  0  0  0
  -13.6003   11.5015  -27.4690 H   0  0  0  0  0  0  0  0  0  0  0  0
   -8.7591    9.4588  -23.6039 H   0  0  0  0  0  0  0  0  0  0  0  0
  -10.9394    7.3054  -27.9393 H   0  0  0  0  0  0  0  0  0  0  0  0
  -10.9009    6.2846  -26.4724 H   0  0  0  0  0  0  0  0  0  0  0  0
  -11.6181   15.1524  -25.6098 H   0  0  0  0  0  0  0  0  0  0  0  0
  -10.5153   15.4032  -23.1833 H   0  0  0  0  0  0  0  0  0  0  0  0
  1  2  1  0
  2  3  1  0
  3  4  1  0
  4  5  1  0
  5  6  1  0
  5  7  1  0
  7  8  1  0
  8  9  2  0
  9 10  1  0
 10 11  2  0
 11 12  1  0
 12 13  2  0
 13 14  1  0
 14 15  2  0
 15 16  1  0
  4 17  1  0
  3 18  1  0
  6  2  1  0
 11  7  1  0
 15 10  1  0
  1 19  1  0
  1 20  1  0
  2 21  1  0
  3 22  1  0
  4 23  1  0
  5 24  1  0
  8 25  1  0
 13 26  1  0
 16 27  1  0
 16 28  1  0
 17 29  1  0
 18 30  1  0
M  RAD  1   1   2
M  END
$$$$

     RDKit          3D

 30 32  0  0  0  0  0  0  0  0999 V2000
  -13.7012   13.3488  -22.1680 C   0  0  0  0  0  3  0  0  0  0  0  0
  -12.4670   13.6173  -22.9877 C   0  0  0  0  0  0  0  0  0  0  0  0
  -12.7207   14.6494  -24.0690 C   0  0  0  0  0  0  0  0  0  0  0  0
  -11.9311   14.1483  -25.2874 C   0  0  0  0  0  0  0  0  0  0  0  0
  -11.3498   12.8916  -24.7845 C   0  0  0  0  0  0  0  0  0  0  0  0
  -12.1252   12.4891  -23.6992 O   0  0  0  0  0  0  0  0  0  0  0  0
  -11.2932   11.7982  -25.7073 N   0  0  0  0  0  0  0  0  0  0  0  0
  -11.4392   11.7247  -27.0199 C   0  0  0  0  0  0  0  0  0  0  0  0
  -11.2943   10.4540  -27.4320 N   0  0  0  0  0  0  0  0  0  0  0  0
  -11.0532    9.7144  -26.3623 C   0  0  0  0  0  0  0  0  0  0  0  0
  -11.0500   10.5370  -25.2861 C   0  0  0  0  0  0  0  0  0  0  0  0
  -10.8191    9.9805  -24.0694 N   0  0  0  0  0  0  0  0  0  0  0  0
  -10.5987    8.6706  -23.9003 C   0  0  0  0  0  0  0  0  0  0  0  0
  -10.6084    7.8802  -24.9901 N   0  0  0  0  0  0  0  0  0  0  0  0
  -10.8286    8.3490  -26.2296 C   0  0  0  0  0  0  0  0  0  0  0  0
  -10.8257    7.4622  -27.3368 N   0  0  0  0  0  0  0  0  0  0  0  0
  -12.8258   14.0391  -26.3209 O   0  0  0  0  0  0  0  0  0  0  0  0
  -12.1958   15.8536  -23.6056 O   0  0  0  0  0  0  0  0  0  0  0  0
  -13.4678   12.5785  -21.4361 H   0  0  0  0  0  0  0  0  0  0  0  0
  -14.5370   13.0870  -22.8493 H   0  0  0  0  0  0  0  0  0  0  0  0
  -11.6201   13.9010  -22.3315 H   0  0  0  0  0  0  0  0  0  0  0  0
  -13.7959   14.6956  -24.2666 H   0  0  0  0  0  0  0  0  0  0  0  0
  -11.1560   14.8979  -25.5536 H   0  0  0  0  0  0  0  0  0  0  0  0
  -10.3311   13.0818  -24.3901 H   0  0  0  0  0  0  0  0  0  0  0  0
  -11.6411   12.5388  -27.6663 H   0  0  0  0  0  0  0  0  0  0  0  0
  -10.4246    8.3106  -22.9064 H   0  0  0  0  0  0  0  0  0  0  0  0
  -11.3028    6.5471  -27.2476 H   0  0  0  0  0  0  0  0  0  0  0  0
  -10.3546    7.7050  -28.2441 H   0  0  0  0  0  0  0  0  0  0  0  0
  -12.6088   14.6555  -27.0691 H   0  0  0  0  0  0  0  0  0  0  0  0
  -12.0328   16.5031  -24.3129 H   0  0  0  0  0  0  0  0  0  0  0  0
  1  2  1  0
  2  3  1  0
  3  4  1  0
  4  5  1  0
  5  6  1  0
  5  7  1  0
  7  8  1  0
  8  9  2  0
  9 10  1  0
 10 11  2  0
 11 12  1  0
 12 13  2  0
 13 14  1  0
 14 15  2  0
 15 16  1  0
  4 17  1  0
  3 18  1  0
  6  2  1  0
 11  7  1  0
 15 10  1  0
  1 19  1  0
  1 20  1  0
  2 21  1  0
  3 22  1  0
  4 23  1  0
  5 24  1  0
  8 25  1  0
 13 26  1  0
 16 27  1  0
 16 28  1  0
 17 29  1  0
 18 30  1  0
M  RAD  1   1   2
M  END
$$$$

     RDKit          3D

 30 32  0  0  0  0  0  0  0  0999 V2000
  -14.4564   14.7368  -23.0767 C   0  0  0  0  0  3  0  0  0  0  0  0
  -13.3512   14.2873  -23.9870 C   0  0  0  0  0  0  0  0  0  0  0  0
  -12.0476   14.1418  -23.2740 C   0  0  0  0  0  0  0  0  0  0  0  0
  -11.3607   13.0457  -24.0801 C   0  0  0  0  0  0  0  0  0  0  0  0
  -12.3652   12.8012  -25.1813 C   0  0  0  0  0  0  0  0  0  0  0  0
  -13.5702   13.0179  -24.5197 O   0  0  0  0  0  0  0  0  0  0  0  0
  -12.2614   11.4733  -25.7327 N   0  0  0  0  0  0  0  0  0  0  0  0
  -13.1282   10.8208  -26.4872 C   0  0  0  0  0  0  0  0  0  0  0  0
  -12.6603    9.5840  -26.8051 N   0  0  0  0  0  0  0  0  0  0  0  0
  -11.4497    9.4586  -26.2244 C   0  0  0  0  0  0  0  0  0  0  0  0
  -11.2081   10.6389  -25.5584 C   0  0  0  0  0  0  0  0  0  0  0  0
  -10.0480   10.7598  -24.8920 N   0  0  0  0  0  0  0  0  0  0  0  0
   -9.1327    9.7761  -24.8586 C   0  0  0  0  0  0  0  0  0  0  0  0
   -9.3785    8.6447  -25.5045 N   0  0  0  0  0  0  0  0  0  0  0  0
  -10.5087    8.4261  -26.1998 C   0  0  0  0  0  0  0  0  0  0  0  0
  -10.7461    7.2214  -26.8747 N   0  0  0  0  0  0  0  0  0  0  0  0
  -10.1895   13.4750  -24.6614 O   0  0  0  0  0  0  0  0  0  0  0  0
  -11.2645   15.2988  -23.3385 O   0  0  0  0  0  0  0  0  0  0  0  0
  -14.5741   13.9663  -22.2915 H   0  0  0  0  0  0  0  0  0  0  0  0
  -15.3998   14.7549  -23.6666 H   0  0  0  0  0  0  0  0  0  0  0  0
  -13.2074   14.9826  -24.8476 H   0  0  0  0  0  0  0  0  0  0  0  0
  -12.2350   13.8300  -22.2267 H   0  0  0  0  0  0  0  0  0  0  0  0
  -11.2497   12.1814  -23.4089 H   0  0  0  0  0  0  0  0  0  0  0  0
  -12.2642   13.5934  -25.9448 H   0  0  0  0  0  0  0  0  0  0  0  0
  -14.0822   11.2276  -26.8042 H   0  0  0  0  0  0  0  0  0  0  0  0
   -8.2116    9.9435  -24.2969 H   0  0  0  0  0  0  0  0  0  0  0  0
  -10.6760    7.2140  -27.9215 H   0  0  0  0  0  0  0  0  0  0  0  0
  -10.9842    6.3733  -26.3156 H   0  0  0  0  0  0  0  0  0  0  0  0
  -10.2115   13.4499  -25.6628 H   0  0  0  0  0  0  0  0  0  0  0  0
  -11.5766   15.8344  -24.1349 H   0  0  0  0  0  0  0  0  0  0  0  0
  1  2  1  0
  2  3  1  0
  3  4  1  0
  4  5  1  0
  5  6  1  0
  5  7  1  0
  7  8  1  0
  8  9  2  0
  9 10  1  0
 10 11  2  0
 11 12  1  0
 12 13  2  0
 13 14  1  0
 14 15  2  0
 15 16  1  0
  4 17  1  0
  3 18  1  0
  6  2  1  0
 11  7  1  0
 15 10  1  0
  1 19  1  0
  1 20  1  0
  2 21  1  0
  3 22  1  0
  4 23  1  0
  5 24  1  0
  8 25  1  0
 13 26  1  0
 16 27  1  0
 16 28  1  0
 17 29  1  0
 18 30  1  0
M  RAD  1   1   2
M  END
$$$$

     RDKit          3D

 30 32  0  0  0  0  0  0  0  0999 V2000
  -12.0118   14.2250  -21.6655 C   0  0  0  0  0  3  0  0  0  0  0  0
  -12.5137   13.8015  -23.0056 C   0  0  0  0  0  0  0  0  0  0  0  0
  -12.1810   14.7974  -24.0963 C   0  0  0  0  0  0  0  0  0  0  0  0
  -12.1024   13.9108  -25.3171 C   0  0  0  0  0  0  0  0  0  0  0  0
  -12.4354   12.5345  -24.7493 C   0  0  0  0  0  0  0  0  0  0  0  0
  -11.9120   12.6281  -23.4752 O   0  0  0  0  0  0  0  0  0  0  0  0
  -11.8370   11.5232  -25.5623 N   0  0  0  0  0  0  0  0  0  0  0  0
  -11.6034   11.6915  -26.8954 C   0  0  0  0  0  0  0  0  0  0  0  0
  -11.0372   10.5677  -27.3638 N   0  0  0  0  0  0  0  0  0  0  0  0
  -10.8891    9.6621  -26.3834 C   0  0  0  0  0  0  0  0  0  0  0  0
  -11.4014   10.2820  -25.2436 C   0  0  0  0  0  0  0  0  0  0  0  0
  -11.3960    9.6243  -24.0813 N   0  0  0  0  0  0  0  0  0  0  0  0
  -10.8942    8.3682  -24.0273 C   0  0  0  0  0  0  0  0  0  0  0  0
  -10.3931    7.7582  -25.1357 N   0  0  0  0  0  0  0  0  0  0  0  0
  -10.3757    8.3771  -26.3285 C   0  0  0  0  0  0  0  0  0  0  0  0
   -9.8679    7.7903  -27.5079 N   0  0  0  0  0  0  0  0  0  0  0  0
  -13.0761   14.3241  -26.2083 O   0  0  0  0  0  0  0  0  0  0  0  0
  -13.1996   15.7420  -24.2096 O   0  0  0  0  0  0  0  0  0  0  0  0
  -12.8870   14.3551  -20.9980 H   0  0  0  0  0  0  0  0  0  0  0  0
  -11.2073   13.6183  -21.2518 H   0  0  0  0  0  0  0  0  0  0  0  0
  -13.6326   13.6713  -23.0306 H   0  0  0  0  0  0  0  0  0  0  0  0
  -11.2213   15.2922  -23.8589 H   0  0  0  0  0  0  0  0  0  0  0  0
  -11.0766   13.9289  -25.7448 H   0  0  0  0  0  0  0  0  0  0  0  0
  -13.5382   12.4383  -24.6854 H   0  0  0  0  0  0  0  0  0  0  0  0
  -11.8306   12.5729  -27.4840 H   0  0  0  0  0  0  0  0  0  0  0  0
  -10.8621    7.7846  -23.1164 H   0  0  0  0  0  0  0  0  0  0  0  0
  -10.4932    7.4509  -28.2563 H   0  0  0  0  0  0  0  0  0  0  0  0
   -8.8455    7.6961  -27.6295 H   0  0  0  0  0  0  0  0  0  0  0  0
  -12.7284   14.7626  -27.0133 H   0  0  0  0  0  0  0  0  0  0  0  0
  -13.1185   16.1426  -25.1300 H   0  0  0  0  0  0  0  0  0  0  0  0
  1  2  1  0
  2  3  1  0
  3  4  1  0
  4  5  1  0
  5  6  1  0
  5  7  1  0
  7  8  1  0
  8  9  2  0
  9 10  1  0
 10 11  2  0
 11 12  1  0
 12 13  2  0
 13 14  1  0
 14 15  2  0
 15 16  1  0
  4 17  1  0
  3 18  1  0
  6  2  1  0
 11  7  1  0
 15 10  1  0
  1 19  1  0
  1 20  1  0
  2 21  1  0
  3 22  1  0
  4 23  1  0
  5 24  1  0
  8 25  1  0
 13 26  1  0
 16 27  1  0
 16 28  1  0
 17 29  1  0
 18 30  1  0
M  RAD  1   1   2
M  END
$$$$

     RDKit          3D

 30 32  0  0  0  0  0  0  0  0999 V2000
  -14.6219   13.8667  -23.4390 C   0  0  0  0  0  3  0  0  0  0  0  0
  -13.1222   13.7852  -23.1225 C   0  0  0  0  0  0  0  0  0  0  0  0
  -12.4507   14.8286  -23.9672 C   0  0  0  0  0  0  0  0  0  0  0  0
  -12.0749   13.9986  -25.2038 C   0  0  0  0  0  0  0  0  0  0  0  0
  -11.7756   12.6788  -24.5276 C   0  0  0  0  0  0  0  0  0  0  0  0
  -12.6870   12.5515  -23.5171 O   0  0  0  0  0  0  0  0  0  0  0  0
  -11.7834   11.5714  -25.4593 N   0  0  0  0  0  0  0  0  0  0  0  0
  -12.4268   11.4341  -26.6179 C   0  0  0  0  0  0  0  0  0  0  0  0
  -12.1381   10.2406  -27.1396 N   0  0  0  0  0  0  0  0  0  0  0  0
  -11.3031    9.6032  -26.3128 C   0  0  0  0  0  0  0  0  0  0  0  0
  -11.0705   10.4351  -25.2447 C   0  0  0  0  0  0  0  0  0  0  0  0
  -10.2651   10.0697  -24.2403 N   0  0  0  0  0  0  0  0  0  0  0  0
   -9.6663    8.8765  -24.2583 C   0  0  0  0  0  0  0  0  0  0  0  0
   -9.8939    8.0644  -25.3017 N   0  0  0  0  0  0  0  0  0  0  0  0
  -10.6789    8.3515  -26.3382 C   0  0  0  0  0  0  0  0  0  0  0  0
  -10.9156    7.4948  -27.4335 N   0  0  0  0  0  0  0  0  0  0  0  0
  -10.9638   14.5334  -25.8415 O   0  0  0  0  0  0  0  0  0  0  0  0
  -11.2893   15.2239  -23.2910 O   0  0  0  0  0  0  0  0  0  0  0  0
  -14.8884   14.9267  -23.6763 H   0  0  0  0  0  0  0  0  0  0  0  0
  -14.7444   13.3173  -24.4168 H   0  0  0  0  0  0  0  0  0  0  0  0
  -12.9925   13.9539  -22.0381 H   0  0  0  0  0  0  0  0  0  0  0  0
  -13.0983   15.6716  -24.2352 H   0  0  0  0  0  0  0  0  0  0  0  0
  -12.9714   13.9606  -25.8404 H   0  0  0  0  0  0  0  0  0  0  0  0
  -10.7367   12.7743  -24.1087 H   0  0  0  0  0  0  0  0  0  0  0  0
  -13.0771   12.2034  -27.0354 H   0  0  0  0  0  0  0  0  0  0  0  0
   -9.0036    8.5736  -23.4336 H   0  0  0  0  0  0  0  0  0  0  0  0
  -11.0397    6.4790  -27.2514 H   0  0  0  0  0  0  0  0  0  0  0  0
  -10.9636    7.8784  -28.4009 H   0  0  0  0  0  0  0  0  0  0  0  0
  -11.2460   15.3325  -26.3229 H   0  0  0  0  0  0  0  0  0  0  0  0
  -10.4668   14.9265  -23.7322 H   0  0  0  0  0  0  0  0  0  0  0  0
  1  2  1  0
  2  3  1  0
  3  4  1  0
  4  5  1  0
  5  6  1  0
  5  7  1  0
  7  8  1  0
  8  9  2  0
  9 10  1  0
 10 11  2  0
 11 12  1  0
 12 13  2  0
 13 14  1  0
 14 15  2  0
 15 16  1  0
  4 17  1  0
  3 18  1  0
  6  2  1  0
 11  7  1  0
 15 10  1  0
  1 19  1  0
  1 20  1  0
  2 21  1  0
  3 22  1  0
  4 23  1  0
  5 24  1  0
  8 25  1  0
 13 26  1  0
 16 27  1  0
 16 28  1  0
 17 29  1  0
 18 30  1  0
M  RAD  1   1   2
M  END
$$$$

     RDKit          3D

 30 32  0  0  0  0  0  0  0  0999 V2000
  -14.0292   12.6791  -23.7035 C   0  0  0  0  0  3  0  0  0  0  0  0
  -13.4134   13.9141  -24.2689 C   0  0  0  0  0  0  0  0  0  0  0  0
  -12.1861   14.2328  -23.3997 C   0  0  0  0  0  0  0  0  0  0  0  0
  -11.1238   13.5710  -24.2359 C   0  0  0  0  0  0  0  0  0  0  0  0
  -11.6977   13.1831  -25.5338 C   0  0  0  0  0  0  0  0  0  0  0  0
  -12.9364   13.8154  -25.5506 O   0  0  0  0  0  0  0  0  0  0  0  0
  -11.8887   11.7975  -25.7697 N   0  0  0  0  0  0  0  0  0  0  0  0
  -13.0354   11.2499  -26.2078 C   0  0  0  0  0  0  0  0  0  0  0  0
  -12.8902    9.9332  -26.3298 N   0  0  0  0  0  0  0  0  0  0  0  0
  -11.6288    9.6508  -25.9614 C   0  0  0  0  0  0  0  0  0  0  0  0
  -10.9781   10.8116  -25.6040 C   0  0  0  0  0  0  0  0  0  0  0  0
   -9.7030   10.7459  -25.2046 N   0  0  0  0  0  0  0  0  0  0  0  0
   -9.0117    9.6090  -25.1296 C   0  0  0  0  0  0  0  0  0  0  0  0
   -9.6163    8.4666  -25.4698 N   0  0  0  0  0  0  0  0  0  0  0  0
  -10.9029    8.4714  -25.8807 C   0  0  0  0  0  0  0  0  0  0  0  0
  -11.5373    7.2715  -26.2378 N   0  0  0  0  0  0  0  0  0  0  0  0
  -10.5331   12.6019  -23.4859 O   0  0  0  0  0  0  0  0  0  0  0  0
  -12.0151   15.6030  -23.2824 O   0  0  0  0  0  0  0  0  0  0  0  0
  -14.0068   12.7829  -22.5836 H   0  0  0  0  0  0  0  0  0  0  0  0
  -15.1153   12.6048  -23.9547 H   0  0  0  0  0  0  0  0  0  0  0  0
  -14.0739   14.7949  -24.1834 H   0  0  0  0  0  0  0  0  0  0  0  0
  -12.2820   13.7837  -22.4066 H   0  0  0  0  0  0  0  0  0  0  0  0
  -10.3467   14.3681  -24.4272 H   0  0  0  0  0  0  0  0  0  0  0  0
  -11.1358   13.5960  -26.4204 H   0  0  0  0  0  0  0  0  0  0  0  0
  -13.9812   11.7641  -26.4466 H   0  0  0  0  0  0  0  0  0  0  0  0
   -7.9864    9.6710  -24.7937 H   0  0  0  0  0  0  0  0  0  0  0  0
  -11.6812    7.0384  -27.2258 H   0  0  0  0  0  0  0  0  0  0  0  0
  -11.8588    6.6240  -25.5058 H   0  0  0  0  0  0  0  0  0  0  0  0
   -9.6066   12.8238  -23.2205 H   0  0  0  0  0  0  0  0  0  0  0  0
  -12.8604   16.1006  -23.1875 H   0  0  0  0  0  0  0  0  0  0  0  0
  1  2  1  0
  2  3  1  0
  3  4  1  0
  4  5  1  0
  5  6  1  0
  5  7  1  0
  7  8  1  0
  8  9  2  0
  9 10  1  0
 10 11  2  0
 11 12  1  0
 12 13  2  0
 13 14  1  0
 14 15  2  0
 15 16  1  0
  4 17  1  0
  3 18  1  0
  6  2  1  0
 11  7  1  0
 15 10  1  0
  1 19  1  0
  1 20  1  0
  2 21  1  0
  3 22  1  0
  4 23  1  0
  5 24  1  0
  8 25  1  0
 13 26  1  0
 16 27  1  0
 16 28  1  0
 17 29  1  0
 18 30  1  0
M  RAD  1   1   2
M  END
$$$$

     RDKit          3D

 30 32  0  0  0  0  0  0  0  0999 V2000
  -11.6028   14.6246  -22.0496 C   0  0  0  0  0  3  0  0  0  0  0  0
  -12.1305   13.4805  -22.8774 C   0  0  0  0  0  0  0  0  0  0  0  0
  -13.2760   13.9998  -23.7017 C   0  0  0  0  0  0  0  0  0  0  0  0
  -13.1750   13.1146  -24.9292 C   0  0  0  0  0  0  0  0  0  0  0  0
  -11.6458   12.9946  -25.0070 C   0  0  0  0  0  0  0  0  0  0  0  0
  -11.2020   12.9300  -23.7137 O   0  0  0  0  0  0  0  0  0  0  0  0
  -11.3012   11.8652  -25.8118 N   0  0  0  0  0  0  0  0  0  0  0  0
  -11.0358   11.8191  -27.1295 C   0  0  0  0  0  0  0  0  0  0  0  0
  -10.7519   10.5658  -27.5189 N   0  0  0  0  0  0  0  0  0  0  0  0
  -10.8332    9.7777  -26.4356 C   0  0  0  0  0  0  0  0  0  0  0  0
  -11.1771   10.5908  -25.3664 C   0  0  0  0  0  0  0  0  0  0  0  0
  -11.3334   10.0791  -24.1339 N   0  0  0  0  0  0  0  0  0  0  0  0
  -11.1581    8.7640  -23.9160 C   0  0  0  0  0  0  0  0  0  0  0  0
  -10.8249    7.9828  -24.9577 N   0  0  0  0  0  0  0  0  0  0  0  0
  -10.6524    8.4264  -26.2151 C   0  0  0  0  0  0  0  0  0  0  0  0
  -10.3004    7.5849  -27.3018 N   0  0  0  0  0  0  0  0  0  0  0  0
  -13.7049   13.6978  -26.0549 O   0  0  0  0  0  0  0  0  0  0  0  0
  -13.0216   15.3102  -24.1358 O   0  0  0  0  0  0  0  0  0  0  0  0
  -11.2447   15.4713  -22.6672 H   0  0  0  0  0  0  0  0  0  0  0  0
  -10.8541   14.2932  -21.2965 H   0  0  0  0  0  0  0  0  0  0  0  0
  -12.4874   12.7013  -22.1759 H   0  0  0  0  0  0  0  0  0  0  0  0
  -14.2565   13.9194  -23.2019 H   0  0  0  0  0  0  0  0  0  0  0  0
  -13.6346   12.1148  -24.7095 H   0  0  0  0  0  0  0  0  0  0  0  0
  -11.2923   13.9606  -25.4381 H   0  0  0  0  0  0  0  0  0  0  0  0
  -11.0597   12.7168  -27.7676 H   0  0  0  0  0  0  0  0  0  0  0  0
  -11.2830    8.3303  -22.9099 H   0  0  0  0  0  0  0  0  0  0  0  0
   -9.3314    7.6423  -27.7173 H   0  0  0  0  0  0  0  0  0  0  0  0
  -11.0265    6.9154  -27.6705 H   0  0  0  0  0  0  0  0  0  0  0  0
  -14.6092   13.2877  -26.2297 H   0  0  0  0  0  0  0  0  0  0  0  0
  -13.8570   15.6281  -24.5741 H   0  0  0  0  0  0  0  0  0  0  0  0
  1  2  1  0
  2  3  1  0
  3  4  1  0
  4  5  1  0
  5  6  1  0
  5  7  1  0
  7  8  1  0
  8  9  2  0
  9 10  1  0
 10 11  2  0
 11 12  1  0
 12 13  2  0
 13 14  1  0
 14 15  2  0
 15 16  1  0
  4 17  1  0
  3 18  1  0
  6  2  1  0
 11  7  1  0
 15 10  1  0
  1 19  1  0
  1 20  1  0
  2 21  1  0
  3 22  1  0
  4 23  1  0
  5 24  1  0
  8 25  1  0
 13 26  1  0
 16 27  1  0
 16 28  1  0
 17 29  1  0
 18 30  1  0
M  RAD  1   1   2
M  END
$$$$

     RDKit          3D

 30 32  0  0  0  0  0  0  0  0999 V2000
  -11.2180   15.3180  -24.1373 C   0  0  0  0  0  3  0  0  0  0  0  0
  -11.6101   14.1724  -23.2407 C   0  0  0  0  0  0  0  0  0  0  0  0
  -13.1189   13.9796  -23.4194 C   0  0  0  0  0  0  0  0  0  0  0  0
  -13.1658   13.3692  -24.8030 C   0  0  0  0  0  0  0  0  0  0  0  0
  -11.7071   13.0238  -25.0642 C   0  0  0  0  0  0  0  0  0  0  0  0
  -11.1313   12.9959  -23.8173 O   0  0  0  0  0  0  0  0  0  0  0  0
  -11.5689   11.7937  -25.7917 N   0  0  0  0  0  0  0  0  0  0  0  0
  -11.9126   11.6691  -27.0984 C   0  0  0  0  0  0  0  0  0  0  0  0
  -11.6451   10.3786  -27.4390 N   0  0  0  0  0  0  0  0  0  0  0  0
  -11.1493    9.7336  -26.3612 C   0  0  0  0  0  0  0  0  0  0  0  0
  -11.1055   10.6435  -25.3196 C   0  0  0  0  0  0  0  0  0  0  0  0
  -10.6480   10.2565  -24.1211 N   0  0  0  0  0  0  0  0  0  0  0  0
  -10.2350    8.9609  -23.9653 C   0  0  0  0  0  0  0  0  0  0  0  0
  -10.2803    8.0810  -24.9826 N   0  0  0  0  0  0  0  0  0  0  0  0
  -10.7327    8.4251  -26.2055 C   0  0  0  0  0  0  0  0  0  0  0  0
  -10.7825    7.5132  -27.2695 N   0  0  0  0  0  0  0  0  0  0  0  0
  -13.6210   14.2691  -25.7552 O   0  0  0  0  0  0  0  0  0  0  0  0
  -13.4948   13.0249  -22.4652 O   0  0  0  0  0  0  0  0  0  0  0  0
  -10.2204   15.7368  -23.9014 H   0  0  0  0  0  0  0  0  0  0  0  0
  -12.0036   16.1014  -24.2000 H   0  0  0  0  0  0  0  0  0  0  0  0
  -11.3289   14.3021  -22.1978 H   0  0  0  0  0  0  0  0  0  0  0  0
  -13.6748   14.9113  -23.3286 H   0  0  0  0  0  0  0  0  0  0  0  0
  -13.7356   12.4311  -24.8332 H   0  0  0  0  0  0  0  0  0  0  0  0
  -11.2953   13.8424  -25.7056 H   0  0  0  0  0  0  0  0  0  0  0  0
  -12.3146   12.3887  -27.7801 H   0  0  0  0  0  0  0  0  0  0  0  0
   -9.8696    8.6482  -23.0115 H   0  0  0  0  0  0  0  0  0  0  0  0
  -10.2695    6.6286  -27.3140 H   0  0  0  0  0  0  0  0  0  0  0  0
  -11.3990    7.7494  -28.1018 H   0  0  0  0  0  0  0  0  0  0  0  0
  -12.8871   14.4313  -26.4256 H   0  0  0  0  0  0  0  0  0  0  0  0
  -13.0928   13.3153  -21.6109 H   0  0  0  0  0  0  0  0  0  0  0  0
  1  2  1  0
  2  3  1  0
  3  4  1  0
  4  5  1  0
  5  6  1  0
  5  7  1  0
  7  8  1  0
  8  9  2  0
  9 10  1  0
 10 11  2  0
 11 12  1  0
 12 13  2  0
 13 14  1  0
 14 15  2  0
 15 16  1  0
  4 17  1  0
  3 18  1  0
  6  2  1  0
 11  7  1  0
 15 10  1  0
  1 19  1  0
  1 20  1  0
  2 21  1  0
  3 22  1  0
  4 23  1  0
  5 24  1  0
  8 25  1  0
 13 26  1  0
 16 27  1  0
 16 28  1  0
 17 29  1  0
 18 30  1  0
M  RAD  1   1   2
M  END
$$$$

     RDKit          3D

 30 32  0  0  0  0  0  0  0  0999 V2000
  -13.8751   13.9816  -22.5783 C   0  0  0  0  0  3  0  0  0  0  0  0
  -12.4154   13.7687  -22.9620 C   0  0  0  0  0  0  0  0  0  0  0  0
  -11.9926   14.7722  -23.9843 C   0  0  0  0  0  0  0  0  0  0  0  0
  -11.5891   13.8740  -25.1565 C   0  0  0  0  0  0  0  0  0  0  0  0
  -12.5195   12.6871  -24.8701 C   0  0  0  0  0  0  0  0  0  0  0  0
  -12.2845   12.5125  -23.5086 O   0  0  0  0  0  0  0  0  0  0  0  0
  -12.1566   11.5394  -25.6574 N   0  0  0  0  0  0  0  0  0  0  0  0
  -12.5943   11.3329  -26.9143 C   0  0  0  0  0  0  0  0  0  0  0  0
  -12.0749   10.1762  -27.3671 N   0  0  0  0  0  0  0  0  0  0  0  0
  -11.3088    9.6479  -26.4013 C   0  0  0  0  0  0  0  0  0  0  0  0
  -11.3593   10.5026  -25.3277 C   0  0  0  0  0  0  0  0  0  0  0  0
  -10.6952   10.2645  -24.1856 N   0  0  0  0  0  0  0  0  0  0  0  0
   -9.9557    9.1438  -24.1006 C   0  0  0  0  0  0  0  0  0  0  0  0
   -9.8923    8.2929  -25.1400 N   0  0  0  0  0  0  0  0  0  0  0  0
  -10.5356    8.4943  -26.2871 C   0  0  0  0  0  0  0  0  0  0  0  0
  -10.5004    7.6358  -27.3999 N   0  0  0  0  0  0  0  0  0  0  0  0
  -10.3003   13.4080  -25.0215 O   0  0  0  0  0  0  0  0  0  0  0  0
  -13.0774   15.5735  -24.3939 O   0  0  0  0  0  0  0  0  0  0  0  0
  -13.9880   14.4259  -21.5788 H   0  0  0  0  0  0  0  0  0  0  0  0
  -14.4874   13.0812  -22.7326 H   0  0  0  0  0  0  0  0  0  0  0  0
  -11.7643   13.8714  -22.0523 H   0  0  0  0  0  0  0  0  0  0  0  0
  -11.1702   15.4136  -23.6675 H   0  0  0  0  0  0  0  0  0  0  0  0
  -11.7940   14.3290  -26.1209 H   0  0  0  0  0  0  0  0  0  0  0  0
  -13.5557   13.0202  -25.0297 H   0  0  0  0  0  0  0  0  0  0  0  0
  -13.2578   11.9940  -27.4683 H   0  0  0  0  0  0  0  0  0  0  0  0
   -9.3977    8.9189  -23.1752 H   0  0  0  0  0  0  0  0  0  0  0  0
  -10.9184    6.6909  -27.3228 H   0  0  0  0  0  0  0  0  0  0  0  0
  -10.0719    7.9082  -28.2996 H   0  0  0  0  0  0  0  0  0  0  0  0
   -9.9651   13.4533  -24.0921 H   0  0  0  0  0  0  0  0  0  0  0  0
  -13.4841   15.2042  -25.2345 H   0  0  0  0  0  0  0  0  0  0  0  0
  1  2  1  0
  2  3  1  0
  3  4  1  0
  4  5  1  0
  5  6  1  0
  5  7  1  0
  7  8  1  0
  8  9  2  0
  9 10  1  0
 10 11  2  0
 11 12  1  0
 12 13  2  0
 13 14  1  0
 14 15  2  0
 15 16  1  0
  4 17  1  0
  3 18  1  0
  6  2  1  0
 11  7  1  0
 15 10  1  0
  1 19  1  0
  1 20  1  0
  2 21  1  0
  3 22  1  0
  4 23  1  0
  5 24  1  0
  8 25  1  0
 13 26  1  0
 16 27  1  0
 16 28  1  0
 17 29  1  0
 18 30  1  0
M  RAD  1   1   2
M  END
$$$$

     RDKit          3D

 30 32  0  0  0  0  0  0  0  0999 V2000
  -14.4028   14.8211  -23.3064 C   0  0  0  0  0  3  0  0  0  0  0  0
  -13.6206   13.9649  -24.3111 C   0  0  0  0  0  0  0  0  0  0  0  0
  -12.3362   14.7339  -24.5872 C   0  0  0  0  0  0  0  0  0  0  0  0
  -11.3649   13.6193  -24.8440 C   0  0  0  0  0  0  0  0  0  0  0  0
  -11.9917   12.4361  -24.1668 C   0  0  0  0  0  0  0  0  0  0  0  0
  -13.2422   12.7816  -23.7388 O   0  0  0  0  0  0  0  0  0  0  0  0
  -12.0206   11.3469  -25.1121 N   0  0  0  0  0  0  0  0  0  0  0  0
  -12.9304   11.0633  -26.0388 C   0  0  0  0  0  0  0  0  0  0  0  0
  -12.5800    9.9462  -26.7216 N   0  0  0  0  0  0  0  0  0  0  0  0
  -11.4164    9.5202  -26.2052 C   0  0  0  0  0  0  0  0  0  0  0  0
  -11.0717   10.3980  -25.2010 C   0  0  0  0  0  0  0  0  0  0  0  0
   -9.9300   10.1833  -24.5219 N   0  0  0  0  0  0  0  0  0  0  0  0
   -9.1490    9.1457  -24.8126 C   0  0  0  0  0  0  0  0  0  0  0  0
   -9.4930    8.3018  -25.7876 N   0  0  0  0  0  0  0  0  0  0  0  0
  -10.6173    8.4438  -26.5152 C   0  0  0  0  0  0  0  0  0  0  0  0
  -10.9338    7.5243  -27.5335 N   0  0  0  0  0  0  0  0  0  0  0  0
  -10.1153   13.9414  -24.3728 O   0  0  0  0  0  0  0  0  0  0  0  0
  -11.9111   15.4363  -23.4794 O   0  0  0  0  0  0  0  0  0  0  0  0
  -13.6507   15.2970  -22.6131 H   0  0  0  0  0  0  0  0  0  0  0  0
  -14.8068   15.6786  -23.9119 H   0  0  0  0  0  0  0  0  0  0  0  0
  -14.2458   13.8684  -25.2120 H   0  0  0  0  0  0  0  0  0  0  0  0
  -12.4688   15.3429  -25.4835 H   0  0  0  0  0  0  0  0  0  0  0  0
  -11.2770   13.4615  -25.9424 H   0  0  0  0  0  0  0  0  0  0  0  0
  -11.4077   12.1129  -23.2611 H   0  0  0  0  0  0  0  0  0  0  0  0
  -13.8278   11.6201  -26.2435 H   0  0  0  0  0  0  0  0  0  0  0  0
   -8.2124    8.9632  -24.2609 H   0  0  0  0  0  0  0  0  0  0  0  0
  -10.7448    6.5063  -27.4155 H   0  0  0  0  0  0  0  0  0  0  0  0
  -11.3633    7.8644  -28.4186 H   0  0  0  0  0  0  0  0  0  0  0  0
   -9.5380   13.1744  -24.1786 H   0  0  0  0  0  0  0  0  0  0  0  0
  -10.9294   15.6233  -23.6285 H   0  0  0  0  0  0  0  0  0  0  0  0
  1  2  1  0
  2  3  1  0
  3  4  1  0
  4  5  1  0
  5  6  1  0
  5  7  1  0
  7  8  1  0
  8  9  2  0
  9 10  1  0
 10 11  2  0
 11 12  1  0
 12 13  2  0
 13 14  1  0
 14 15  2  0
 15 16  1  0
  4 17  1  0
  3 18  1  0
  6  2  1  0
 11  7  1  0
 15 10  1  0
  1 19  1  0
  1 20  1  0
  2 21  1  0
  3 22  1  0
  4 23  1  0
  5 24  1  0
  8 25  1  0
 13 26  1  0
 16 27  1  0
 16 28  1  0
 17 29  1  0
 18 30  1  0
M  RAD  1   1   2
M  END
$$$$

     RDKit          3D

 30 32  0  0  0  0  0  0  0  0999 V2000
  -12.4527   12.9347  -21.8750 C   0  0  0  0  0  3  0  0  0  0  0  0
  -11.8777   13.8295  -22.9726 C   0  0  0  0  0  0  0  0  0  0  0  0
  -13.0215   14.3299  -23.7936 C   0  0  0  0  0  0  0  0  0  0  0  0
  -13.0382   13.3131  -24.9395 C   0  0  0  0  0  0  0  0  0  0  0  0
  -11.5287   13.0568  -25.0416 C   0  0  0  0  0  0  0  0  0  0  0  0
  -11.0625   13.0625  -23.7571 O   0  0  0  0  0  0  0  0  0  0  0  0
  -11.2266   11.8878  -25.8007 N   0  0  0  0  0  0  0  0  0  0  0  0
  -10.9030   11.8323  -27.1056 C   0  0  0  0  0  0  0  0  0  0  0  0
  -10.6849   10.5565  -27.4765 N   0  0  0  0  0  0  0  0  0  0  0  0
  -10.8760    9.7942  -26.3793 C   0  0  0  0  0  0  0  0  0  0  0  0
  -11.2179   10.6215  -25.3163 C   0  0  0  0  0  0  0  0  0  0  0  0
  -11.4657   10.1198  -24.0937 N   0  0  0  0  0  0  0  0  0  0  0  0
  -11.3807    8.7913  -23.8968 C   0  0  0  0  0  0  0  0  0  0  0  0
  -11.0487    7.9908  -24.9300 N   0  0  0  0  0  0  0  0  0  0  0  0
  -10.7922    8.4307  -26.1629 C   0  0  0  0  0  0  0  0  0  0  0  0
  -10.4426    7.6037  -27.2578 N   0  0  0  0  0  0  0  0  0  0  0  0
  -13.4432   13.8850  -26.1296 O   0  0  0  0  0  0  0  0  0  0  0  0
  -12.6643   15.5677  -24.3275 O   0  0  0  0  0  0  0  0  0  0  0  0
  -13.3822   12.4728  -22.2720 H   0  0  0  0  0  0  0  0  0  0  0  0
  -12.6719   13.6040  -21.0150 H   0  0  0  0  0  0  0  0  0  0  0  0
  -11.3746   14.7050  -22.5103 H   0  0  0  0  0  0  0  0  0  0  0  0
  -13.9766   14.3561  -23.2544 H   0  0  0  0  0  0  0  0  0  0  0  0
  -13.5855   12.4100  -24.6612 H   0  0  0  0  0  0  0  0  0  0  0  0
  -11.1240   13.9851  -25.5425 H   0  0  0  0  0  0  0  0  0  0  0  0
  -10.8387   12.7276  -27.7370 H   0  0  0  0  0  0  0  0  0  0  0  0
  -11.5783    8.3526  -22.9057 H   0  0  0  0  0  0  0  0  0  0  0  0
   -9.4788    7.2089  -27.3852 H   0  0  0  0  0  0  0  0  0  0  0  0
  -11.1698    7.3840  -27.9556 H   0  0  0  0  0  0  0  0  0  0  0  0
  -14.2454   13.3681  -26.4327 H   0  0  0  0  0  0  0  0  0  0  0  0
  -12.9532   15.6805  -25.2622 H   0  0  0  0  0  0  0  0  0  0  0  0
  1  2  1  0
  2  3  1  0
  3  4  1  0
  4  5  1  0
  5  6  1  0
  5  7  1  0
  7  8  1  0
  8  9  2  0
  9 10  1  0
 10 11  2  0
 11 12  1  0
 12 13  2  0
 13 14  1  0
 14 15  2  0
 15 16  1  0
  4 17  1  0
  3 18  1  0
  6  2  1  0
 11  7  1  0
 15 10  1  0
  1 19  1  0
  1 20  1  0
  2 21  1  0
  3 22  1  0
  4 23  1  0
  5 24  1  0
  8 25  1  0
 13 26  1  0
 16 27  1  0
 16 28  1  0
 17 29  1  0
 18 30  1  0
M  RAD  1   1   2
M  END
$$$$

     RDKit          3D

 30 32  0  0  0  0  0  0  0  0999 V2000
  -12.3253   13.4978  -21.9276 C   0  0  0  0  0  3  0  0  0  0  0  0
  -13.1221   13.7456  -23.1730 C   0  0  0  0  0  0  0  0  0  0  0  0
  -12.5407   14.8506  -24.0260 C   0  0  0  0  0  0  0  0  0  0  0  0
  -11.9333   14.0506  -25.1848 C   0  0  0  0  0  0  0  0  0  0  0  0
  -11.8261   12.6855  -24.5341 C   0  0  0  0  0  0  0  0  0  0  0  0
  -13.0901   12.5852  -23.9390 O   0  0  0  0  0  0  0  0  0  0  0  0
  -11.6108   11.6393  -25.5104 N   0  0  0  0  0  0  0  0  0  0  0  0
  -11.7766   11.6738  -26.8482 C   0  0  0  0  0  0  0  0  0  0  0  0
  -11.4607   10.4721  -27.3765 N   0  0  0  0  0  0  0  0  0  0  0  0
  -11.0918    9.6685  -26.3690 C   0  0  0  0  0  0  0  0  0  0  0  0
  -11.1878   10.4031  -25.2073 C   0  0  0  0  0  0  0  0  0  0  0  0
  -10.8609    9.7831  -24.0655 N   0  0  0  0  0  0  0  0  0  0  0  0
  -10.4546    8.5033  -24.0255 C   0  0  0  0  0  0  0  0  0  0  0  0
  -10.3663    7.8038  -25.1577 N   0  0  0  0  0  0  0  0  0  0  0  0
  -10.6735    8.3496  -26.3313 C   0  0  0  0  0  0  0  0  0  0  0  0
  -10.5838    7.6221  -27.5283 N   0  0  0  0  0  0  0  0  0  0  0  0
  -10.7064   14.5583  -25.5688 O   0  0  0  0  0  0  0  0  0  0  0  0
  -13.5161   15.7158  -24.4831 O   0  0  0  0  0  0  0  0  0  0  0  0
  -11.9780   12.4313  -21.8576 H   0  0  0  0  0  0  0  0  0  0  0  0
  -12.9201   13.7506  -21.0084 H   0  0  0  0  0  0  0  0  0  0  0  0
  -14.1703   14.0484  -22.9339 H   0  0  0  0  0  0  0  0  0  0  0  0
  -11.7566   15.3480  -23.4239 H   0  0  0  0  0  0  0  0  0  0  0  0
  -12.6578   13.9699  -25.9972 H   0  0  0  0  0  0  0  0  0  0  0  0
  -11.0444   12.7352  -23.7775 H   0  0  0  0  0  0  0  0  0  0  0  0
  -12.1135   12.5476  -27.3893 H   0  0  0  0  0  0  0  0  0  0  0  0
  -10.1999    8.0368  -23.0899 H   0  0  0  0  0  0  0  0  0  0  0  0
  -10.0347    6.7362  -27.5377 H   0  0  0  0  0  0  0  0  0  0  0  0
  -11.0584    7.9575  -28.4021 H   0  0  0  0  0  0  0  0  0  0  0  0
  -10.6103   14.3779  -26.5487 H   0  0  0  0  0  0  0  0  0  0  0  0
  -13.0663   16.5011  -24.8692 H   0  0  0  0  0  0  0  0  0  0  0  0
  1  2  1  0
  2  3  1  0
  3  4  1  0
  4  5  1  0
  5  6  1  0
  5  7  1  0
  7  8  1  0
  8  9  2  0
  9 10  1  0
 10 11  2  0
 11 12  1  0
 12 13  2  0
 13 14  1  0
 14 15  2  0
 15 16  1  0
  4 17  1  0
  3 18  1  0
  6  2  1  0
 11  7  1  0
 15 10  1  0
  1 19  1  0
  1 20  1  0
  2 21  1  0
  3 22  1  0
  4 23  1  0
  5 24  1  0
  8 25  1  0
 13 26  1  0
 16 27  1  0
 16 28  1  0
 17 29  1  0
 18 30  1  0
M  RAD  1   1   2
M  END
$$$$

     RDKit          3D

 30 32  0  0  0  0  0  0  0  0999 V2000
  -14.2488   15.0550  -24.9109 C   0  0  0  0  0  3  0  0  0  0  0  0
  -13.1488   14.0483  -24.8534 C   0  0  0  0  0  0  0  0  0  0  0  0
  -11.9843   14.5081  -23.9686 C   0  0  0  0  0  0  0  0  0  0  0  0
  -11.2404   13.1673  -23.8644 C   0  0  0  0  0  0  0  0  0  0  0  0
  -12.3826   12.2149  -23.8264 C   0  0  0  0  0  0  0  0  0  0  0  0
  -13.5337   12.8900  -24.1509 O   0  0  0  0  0  0  0  0  0  0  0  0
  -12.2353   11.0725  -24.6885 N   0  0  0  0  0  0  0  0  0  0  0  0
  -13.3223   10.3481  -25.0814 C   0  0  0  0  0  0  0  0  0  0  0  0
  -12.8834    9.3530  -25.8727 N   0  0  0  0  0  0  0  0  0  0  0  0
  -11.5443    9.4509  -25.9748 C   0  0  0  0  0  0  0  0  0  0  0  0
  -11.1513   10.5396  -25.2227 C   0  0  0  0  0  0  0  0  0  0  0  0
   -9.8577   10.8811  -25.1391 N   0  0  0  0  0  0  0  0  0  0  0  0
   -8.9471   10.1402  -25.8042 C   0  0  0  0  0  0  0  0  0  0  0  0
   -9.3083    9.0633  -26.5518 N   0  0  0  0  0  0  0  0  0  0  0  0
  -10.5987    8.7101  -26.6444 C   0  0  0  0  0  0  0  0  0  0  0  0
  -11.0461    7.5971  -27.4074 N   0  0  0  0  0  0  0  0  0  0  0  0
  -10.4831   13.1059  -22.7008 O   0  0  0  0  0  0  0  0  0  0  0  0
  -11.2108   15.4625  -24.5937 O   0  0  0  0  0  0  0  0  0  0  0  0
  -14.3867   15.5337  -25.8892 H   0  0  0  0  0  0  0  0  0  0  0  0
  -14.2621   15.7578  -24.0611 H   0  0  0  0  0  0  0  0  0  0  0  0
  -12.7634   13.8130  -25.8611 H   0  0  0  0  0  0  0  0  0  0  0  0
  -12.3347   14.7730  -22.9709 H   0  0  0  0  0  0  0  0  0  0  0  0
  -10.6055   13.1069  -24.7503 H   0  0  0  0  0  0  0  0  0  0  0  0
  -12.4750   11.8323  -22.7770 H   0  0  0  0  0  0  0  0  0  0  0  0
  -14.3578   10.5165  -24.8224 H   0  0  0  0  0  0  0  0  0  0  0  0
   -7.9034   10.3937  -25.7531 H   0  0  0  0  0  0  0  0  0  0  0  0
  -11.3747    7.7823  -28.3752 H   0  0  0  0  0  0  0  0  0  0  0  0
  -11.0454    6.6331  -27.0138 H   0  0  0  0  0  0  0  0  0  0  0  0
  -10.6075   12.2193  -22.2731 H   0  0  0  0  0  0  0  0  0  0  0  0
  -10.3724   15.0758  -24.9501 H   0  0  0  0  0  0  0  0  0  0  0  0
  1  2  1  0
  2  3  1  0
  3  4  1  0
  4  5  1  0
  5  6  1  0
  5  7  1  0
  7  8  1  0
  8  9  2  0
  9 10  1  0
 10 11  2  0
 11 12  1  0
 12 13  2  0
 13 14  1  0
 14 15  2  0
 15 16  1  0
  4 17  1  0
  3 18  1  0
  6  2  1  0
 11  7  1  0
 15 10  1  0
  1 19  1  0
  1 20  1  0
  2 21  1  0
  3 22  1  0
  4 23  1  0
  5 24  1  0
  8 25  1  0
 13 26  1  0
 16 27  1  0
 16 28  1  0
 17 29  1  0
 18 30  1  0
M  RAD  1   1   2
M  END
$$$$

     RDKit          3D

 30 32  0  0  0  0  0  0  0  0999 V2000
  -14.1673   14.3830  -22.8433 C   0  0  0  0  0  3  0  0  0  0  0  0
  -13.5276   13.6181  -24.0052 C   0  0  0  0  0  0  0  0  0  0  0  0
  -12.7090   14.5160  -24.8736 C   0  0  0  0  0  0  0  0  0  0  0  0
  -11.3375   13.9101  -24.8641 C   0  0  0  0  0  0  0  0  0  0  0  0
  -11.5517   12.5817  -24.1786 C   0  0  0  0  0  0  0  0  0  0  0  0
  -12.7115   12.6607  -23.4582 O   0  0  0  0  0  0  0  0  0  0  0  0
  -11.6414   11.5054  -25.1641 N   0  0  0  0  0  0  0  0  0  0  0  0
  -12.4238   11.4897  -26.2531 C   0  0  0  0  0  0  0  0  0  0  0  0
  -12.2398   10.3257  -26.9326 N   0  0  0  0  0  0  0  0  0  0  0  0
  -11.3364    9.5908  -26.2786 C   0  0  0  0  0  0  0  0  0  0  0  0
  -10.9692   10.3402  -25.1731 C   0  0  0  0  0  0  0  0  0  0  0  0
  -10.0443    9.8115  -24.3244 N   0  0  0  0  0  0  0  0  0  0  0  0
   -9.5202    8.5983  -24.5755 C   0  0  0  0  0  0  0  0  0  0  0  0
   -9.8889    7.8673  -25.6684 N   0  0  0  0  0  0  0  0  0  0  0  0
  -10.7989    8.3463  -26.5364 C   0  0  0  0  0  0  0  0  0  0  0  0
  -11.1583    7.5564  -27.6636 N   0  0  0  0  0  0  0  0  0  0  0  0
  -10.4535   14.6908  -24.0933 O   0  0  0  0  0  0  0  0  0  0  0  0
  -12.6476   15.8163  -24.3700 O   0  0  0  0  0  0  0  0  0  0  0  0
  -15.0444   14.9783  -23.2026 H   0  0  0  0  0  0  0  0  0  0  0  0
  -14.5475   13.6086  -22.1474 H   0  0  0  0  0  0  0  0  0  0  0  0
  -14.3279   13.0865  -24.5881 H   0  0  0  0  0  0  0  0  0  0  0  0
  -13.0847   14.6058  -25.9157 H   0  0  0  0  0  0  0  0  0  0  0  0
  -10.8987   13.8092  -25.8784 H   0  0  0  0  0  0  0  0  0  0  0  0
  -10.7075   12.4195  -23.4843 H   0  0  0  0  0  0  0  0  0  0  0  0
  -13.0932   12.2874  -26.5347 H   0  0  0  0  0  0  0  0  0  0  0  0
   -8.7854    8.1554  -23.9196 H   0  0  0  0  0  0  0  0  0  0  0  0
  -10.8520    7.8363  -28.6271 H   0  0  0  0  0  0  0  0  0  0  0  0
  -11.7200    6.7000  -27.5745 H   0  0  0  0  0  0  0  0  0  0  0  0
  -10.2387   14.2003  -23.2445 H   0  0  0  0  0  0  0  0  0  0  0  0
  -11.7166   16.1894  -24.4484 H   0  0  0  0  0  0  0  0  0  0  0  0
  1  2  1  0
  2  3  1  0
  3  4  1  0
  4  5  1  0
  5  6  1  0
  5  7  1  0
  7  8  1  0
  8  9  2  0
  9 10  1  0
 10 11  2  0
 11 12  1  0
 12 13  2  0
 13 14  1  0
 14 15  2  0
 15 16  1  0
  4 17  1  0
  3 18  1  0
  6  2  1  0
 11  7  1  0
 15 10  1  0
  1 19  1  0
  1 20  1  0
  2 21  1  0
  3 22  1  0
  4 23  1  0
  5 24  1  0
  8 25  1  0
 13 26  1  0
 16 27  1  0
 16 28  1  0
 17 29  1  0
 18 30  1  0
M  RAD  1   1   2
M  END
$$$$

     RDKit          3D

 30 32  0  0  0  0  0  0  0  0999 V2000
  -14.2612   14.9032  -24.9995 C   0  0  0  0  0  3  0  0  0  0  0  0
  -13.1472   13.9307  -24.8222 C   0  0  0  0  0  0  0  0  0  0  0  0
  -11.8862   14.5866  -24.2429 C   0  0  0  0  0  0  0  0  0  0  0  0
  -11.0879   13.3187  -23.9159 C   0  0  0  0  0  0  0  0  0  0  0  0
  -12.1709   12.3060  -23.7447 C   0  0  0  0  0  0  0  0  0  0  0  0
  -13.3948   12.9884  -23.8101 O   0  0  0  0  0  0  0  0  0  0  0  0
  -12.1578   11.2549  -24.7234 N   0  0  0  0  0  0  0  0  0  0  0  0
  -13.2158   10.8515  -25.4759 C   0  0  0  0  0  0  0  0  0  0  0  0
  -12.8271    9.8589  -26.2667 N   0  0  0  0  0  0  0  0  0  0  0  0
  -11.5245    9.6291  -26.0200 C   0  0  0  0  0  0  0  0  0  0  0  0
  -11.0869   10.5055  -25.0450 C   0  0  0  0  0  0  0  0  0  0  0  0
   -9.8013   10.4314  -24.6588 N   0  0  0  0  0  0  0  0  0  0  0  0
   -8.9215    9.5517  -25.1699 C   0  0  0  0  0  0  0  0  0  0  0  0
   -9.3680    8.6935  -26.1311 N   0  0  0  0  0  0  0  0  0  0  0  0
  -10.6447    8.7188  -26.5599 C   0  0  0  0  0  0  0  0  0  0  0  0
  -11.0836    7.8054  -27.5700 N   0  0  0  0  0  0  0  0  0  0  0  0
  -10.2615   13.0429  -25.0280 O   0  0  0  0  0  0  0  0  0  0  0  0
  -12.2861   15.2306  -23.0719 O   0  0  0  0  0  0  0  0  0  0  0  0
  -15.2135   14.4064  -24.7052 H   0  0  0  0  0  0  0  0  0  0  0  0
  -14.3995   15.1657  -26.0893 H   0  0  0  0  0  0  0  0  0  0  0  0
  -12.9105   13.4158  -25.7793 H   0  0  0  0  0  0  0  0  0  0  0  0
  -11.3817   15.2279  -24.9562 H   0  0  0  0  0  0  0  0  0  0  0  0
  -10.4589   13.4620  -23.0220 H   0  0  0  0  0  0  0  0  0  0  0  0
  -12.1032   11.8444  -22.7394 H   0  0  0  0  0  0  0  0  0  0  0  0
  -14.2334   11.2610  -25.4533 H   0  0  0  0  0  0  0  0  0  0  0  0
   -7.8860    9.5019  -24.8496 H   0  0  0  0  0  0  0  0  0  0  0  0
  -10.5133    7.0197  -27.8930 H   0  0  0  0  0  0  0  0  0  0  0  0
  -12.0239    7.9382  -28.0015 H   0  0  0  0  0  0  0  0  0  0  0  0
   -9.3061   13.2099  -24.8037 H   0  0  0  0  0  0  0  0  0  0  0  0
  -11.7056   15.0344  -22.3019 H   0  0  0  0  0  0  0  0  0  0  0  0
  1  2  1  0
  2  3  1  0
  3  4  1  0
  4  5  1  0
  5  6  1  0
  5  7  1  0
  7  8  1  0
  8  9  2  0
  9 10  1  0
 10 11  2  0
 11 12  1  0
 12 13  2  0
 13 14  1  0
 14 15  2  0
 15 16  1  0
  4 17  1  0
  3 18  1  0
  6  2  1  0
 11  7  1  0
 15 10  1  0
  1 19  1  0
  1 20  1  0
  2 21  1  0
  3 22  1  0
  4 23  1  0
  5 24  1  0
  8 25  1  0
 13 26  1  0
 16 27  1  0
 16 28  1  0
 17 29  1  0
 18 30  1  0
M  RAD  1   1   2
M  END
$$$$

     RDKit          3D

 30 32  0  0  0  0  0  0  0  0999 V2000
  -13.5961   15.8209  -24.4484 C   0  0  0  0  0  3  0  0  0  0  0  0
  -12.5329   14.7941  -24.3939 C   0  0  0  0  0  0  0  0  0  0  0  0
  -12.6687   13.8697  -23.1770 C   0  0  0  0  0  0  0  0  0  0  0  0
  -11.5525   12.8841  -23.5463 C   0  0  0  0  0  0  0  0  0  0  0  0
  -11.5981   12.9527  -25.0569 C   0  0  0  0  0  0  0  0  0  0  0  0
  -12.5634   13.8619  -25.4076 O   0  0  0  0  0  0  0  0  0  0  0  0
  -11.8950   11.6120  -25.5292 N   0  0  0  0  0  0  0  0  0  0  0  0
  -13.0549   11.0981  -25.9712 C   0  0  0  0  0  0  0  0  0  0  0  0
  -12.8418    9.7951  -26.3051 N   0  0  0  0  0  0  0  0  0  0  0  0
  -11.5588    9.5027  -26.0719 C   0  0  0  0  0  0  0  0  0  0  0  0
  -10.9609   10.6462  -25.5831 C   0  0  0  0  0  0  0  0  0  0  0  0
   -9.6677   10.6063  -25.2724 N   0  0  0  0  0  0  0  0  0  0  0  0
   -8.8905    9.5352  -25.3967 C   0  0  0  0  0  0  0  0  0  0  0  0
   -9.4464    8.4020  -25.8720 N   0  0  0  0  0  0  0  0  0  0  0  0
  -10.7514    8.3838  -26.2029 C   0  0  0  0  0  0  0  0  0  0  0  0
  -11.3198    7.1792  -26.7024 N   0  0  0  0  0  0  0  0  0  0  0  0
  -10.3702   13.4699  -23.0477 O   0  0  0  0  0  0  0  0  0  0  0  0
  -13.8578   13.1942  -23.2715 O   0  0  0  0  0  0  0  0  0  0  0  0
  -13.2985   16.6377  -25.1052 H   0  0  0  0  0  0  0  0  0  0  0  0
  -14.5898   15.4088  -24.6376 H   0  0  0  0  0  0  0  0  0  0  0  0
  -11.5344   15.2622  -24.3869 H   0  0  0  0  0  0  0  0  0  0  0  0
  -12.4817   14.3823  -22.2384 H   0  0  0  0  0  0  0  0  0  0  0  0
  -11.7301   11.8854  -23.1533 H   0  0  0  0  0  0  0  0  0  0  0  0
  -10.6051   13.2368  -25.4703 H   0  0  0  0  0  0  0  0  0  0  0  0
  -13.9958   11.6516  -26.0415 H   0  0  0  0  0  0  0  0  0  0  0  0
   -7.8481    9.5852  -25.1218 H   0  0  0  0  0  0  0  0  0  0  0  0
  -11.2709    6.9833  -27.7160 H   0  0  0  0  0  0  0  0  0  0  0  0
  -11.7776    6.5098  -26.0439 H   0  0  0  0  0  0  0  0  0  0  0  0
   -9.6640   13.4942  -23.7634 H   0  0  0  0  0  0  0  0  0  0  0  0
  -14.2846   13.2944  -24.1811 H   0  0  0  0  0  0  0  0  0  0  0  0
  1  2  1  0
  2  3  1  0
  3  4  1  0
  4  5  1  0
  5  6  1  0
  5  7  1  0
  7  8  1  0
  8  9  2  0
  9 10  1  0
 10 11  2  0
 11 12  1  0
 12 13  2  0
 13 14  1  0
 14 15  2  0
 15 16  1  0
  4 17  1  0
  3 18  1  0
  6  2  1  0
 11  7  1  0
 15 10  1  0
  1 19  1  0
  1 20  1  0
  2 21  1  0
  3 22  1  0
  4 23  1  0
  5 24  1  0
  8 25  1  0
 13 26  1  0
 16 27  1  0
 16 28  1  0
 17 29  1  0
 18 30  1  0
M  RAD  1   1   2
M  END
$$$$

     RDKit          3D

 30 32  0  0  0  0  0  0  0  0999 V2000
  -11.7656   15.1998  -22.6506 C   0  0  0  0  0  3  0  0  0  0  0  0
  -12.1492   13.7807  -22.9288 C   0  0  0  0  0  0  0  0  0  0  0  0
  -13.3407   13.6811  -23.8577 C   0  0  0  0  0  0  0  0  0  0  0  0
  -12.6495   13.8246  -25.2166 C   0  0  0  0  0  0  0  0  0  0  0  0
  -11.2934   13.2764  -24.9319 C   0  0  0  0  0  0  0  0  0  0  0  0
  -11.1726   13.0606  -23.5820 O   0  0  0  0  0  0  0  0  0  0  0  0
  -11.1417   12.0509  -25.7003 N   0  0  0  0  0  0  0  0  0  0  0  0
  -11.0557   12.0247  -27.0400 C   0  0  0  0  0  0  0  0  0  0  0  0
  -10.9239   10.7515  -27.4250 N   0  0  0  0  0  0  0  0  0  0  0  0
  -10.9259    9.9664  -26.3313 C   0  0  0  0  0  0  0  0  0  0  0  0
  -11.0654   10.8001  -25.2277 C   0  0  0  0  0  0  0  0  0  0  0  0
  -11.0962   10.2662  -24.0123 N   0  0  0  0  0  0  0  0  0  0  0  0
  -10.9905    8.9304  -23.8954 C   0  0  0  0  0  0  0  0  0  0  0  0
  -10.8546    8.1033  -24.9501 N   0  0  0  0  0  0  0  0  0  0  0  0
  -10.8185    8.6000  -26.1994 C   0  0  0  0  0  0  0  0  0  0  0  0
  -10.6747    7.7474  -27.3452 N   0  0  0  0  0  0  0  0  0  0  0  0
  -13.3341   13.1331  -26.1987 O   0  0  0  0  0  0  0  0  0  0  0  0
  -13.8748   12.4109  -23.7629 O   0  0  0  0  0  0  0  0  0  0  0  0
  -12.3091   15.5767  -21.7573 H   0  0  0  0  0  0  0  0  0  0  0  0
  -12.0086   15.8968  -23.4816 H   0  0  0  0  0  0  0  0  0  0  0  0
  -12.4267   13.2443  -21.9893 H   0  0  0  0  0  0  0  0  0  0  0  0
  -14.0817   14.4824  -23.6973 H   0  0  0  0  0  0  0  0  0  0  0  0
  -12.6156   14.8929  -25.4938 H   0  0  0  0  0  0  0  0  0  0  0  0
  -10.5312   13.9914  -25.3346 H   0  0  0  0  0  0  0  0  0  0  0  0
  -11.0843   12.8682  -27.7251 H   0  0  0  0  0  0  0  0  0  0  0  0
  -11.0125    8.4635  -22.9119 H   0  0  0  0  0  0  0  0  0  0  0  0
  -10.2903    8.1283  -28.2380 H   0  0  0  0  0  0  0  0  0  0  0  0
  -10.9439    6.7618  -27.3069 H   0  0  0  0  0  0  0  0  0  0  0  0
  -13.6633   13.7502  -26.9212 H   0  0  0  0  0  0  0  0  0  0  0  0
  -13.5634   11.9777  -22.9180 H   0  0  0  0  0  0  0  0  0  0  0  0
  1  2  1  0
  2  3  1  0
  3  4  1  0
  4  5  1  0
  5  6  1  0
  5  7  1  0
  7  8  1  0
  8  9  2  0
  9 10  1  0
 10 11  2  0
 11 12  1  0
 12 13  2  0
 13 14  1  0
 14 15  2  0
 15 16  1  0
  4 17  1  0
  3 18  1  0
  6  2  1  0
 11  7  1  0
 15 10  1  0
  1 19  1  0
  1 20  1  0
  2 21  1  0
  3 22  1  0
  4 23  1  0
  5 24  1  0
  8 25  1  0
 13 26  1  0
 16 27  1  0
 16 28  1  0
 17 29  1  0
 18 30  1  0
M  RAD  1   1   2
M  END
$$$$

     RDKit          3D

 30 32  0  0  0  0  0  0  0  0999 V2000
  -12.6613   14.0180  -21.8679 C   0  0  0  0  0  3  0  0  0  0  0  0
  -11.8580   14.0360  -23.1346 C   0  0  0  0  0  0  0  0  0  0  0  0
  -12.4624   14.8586  -24.2239 C   0  0  0  0  0  0  0  0  0  0  0  0
  -12.4202   13.8972  -25.4190 C   0  0  0  0  0  0  0  0  0  0  0  0
  -11.2954   12.9668  -24.9459 C   0  0  0  0  0  0  0  0  0  0  0  0
  -11.7108   12.7301  -23.6355 O   0  0  0  0  0  0  0  0  0  0  0  0
  -11.1881   11.7911  -25.7398 N   0  0  0  0  0  0  0  0  0  0  0  0
  -11.2420   11.7543  -27.0784 C   0  0  0  0  0  0  0  0  0  0  0  0
  -11.1076   10.4860  -27.5049 N   0  0  0  0  0  0  0  0  0  0  0  0
  -10.9661    9.7169  -26.3852 C   0  0  0  0  0  0  0  0  0  0  0  0
  -11.0178   10.5453  -25.2777 C   0  0  0  0  0  0  0  0  0  0  0  0
  -10.8951    9.9622  -24.0758 N   0  0  0  0  0  0  0  0  0  0  0  0
  -10.7299    8.6427  -23.9373 C   0  0  0  0  0  0  0  0  0  0  0  0
  -10.6767    7.8192  -24.9941 N   0  0  0  0  0  0  0  0  0  0  0  0
  -10.7951    8.3550  -26.2295 C   0  0  0  0  0  0  0  0  0  0  0  0
  -10.7518    7.5722  -27.4039 N   0  0  0  0  0  0  0  0  0  0  0  0
  -13.5961   13.1701  -25.4418 O   0  0  0  0  0  0  0  0  0  0  0  0
  -13.7526   15.2865  -23.9608 O   0  0  0  0  0  0  0  0  0  0  0  0
  -13.4049   14.8585  -21.9022 H   0  0  0  0  0  0  0  0  0  0  0  0
  -11.9625   14.2754  -21.0303 H   0  0  0  0  0  0  0  0  0  0  0  0
  -10.8126   14.4230  -22.9642 H   0  0  0  0  0  0  0  0  0  0  0  0
  -11.7950   15.7134  -24.5328 H   0  0  0  0  0  0  0  0  0  0  0  0
  -12.1781   14.4027  -26.3520 H   0  0  0  0  0  0  0  0  0  0  0  0
  -10.3512   13.5532  -24.8818 H   0  0  0  0  0  0  0  0  0  0  0  0
  -11.3735   12.5897  -27.7833 H   0  0  0  0  0  0  0  0  0  0  0  0
  -10.6319    8.1820  -22.9612 H   0  0  0  0  0  0  0  0  0  0  0  0
  -11.6226    7.4188  -27.9413 H   0  0  0  0  0  0  0  0  0  0  0  0
   -9.8710    7.1513  -27.7356 H   0  0  0  0  0  0  0  0  0  0  0  0
  -13.7050   12.7941  -24.5121 H   0  0  0  0  0  0  0  0  0  0  0  0
  -13.8949   16.0969  -24.5466 H   0  0  0  0  0  0  0  0  0  0  0  0
  1  2  1  0
  2  3  1  0
  3  4  1  0
  4  5  1  0
  5  6  1  0
  5  7  1  0
  7  8  1  0
  8  9  2  0
  9 10  1  0
 10 11  2  0
 11 12  1  0
 12 13  2  0
 13 14  1  0
 14 15  2  0
 15 16  1  0
  4 17  1  0
  3 18  1  0
  6  2  1  0
 11  7  1  0
 15 10  1  0
  1 19  1  0
  1 20  1  0
  2 21  1  0
  3 22  1  0
  4 23  1  0
  5 24  1  0
  8 25  1  0
 13 26  1  0
 16 27  1  0
 16 28  1  0
 17 29  1  0
 18 30  1  0
M  RAD  1   1   2
M  END
$$$$

     RDKit          3D

 30 32  0  0  0  0  0  0  0  0999 V2000
  -13.5598   15.6834  -24.7374 C   0  0  0  0  0  3  0  0  0  0  0  0
  -13.2954   14.3991  -24.0053 C   0  0  0  0  0  0  0  0  0  0  0  0
  -11.8795   14.4297  -23.4931 C   0  0  0  0  0  0  0  0  0  0  0  0
  -11.2763   13.2092  -24.2001 C   0  0  0  0  0  0  0  0  0  0  0  0
  -12.5380   12.3491  -24.2800 C   0  0  0  0  0  0  0  0  0  0  0  0
  -13.4452   13.2743  -24.7796 O   0  0  0  0  0  0  0  0  0  0  0  0
  -12.3654   11.1946  -25.0823 N   0  0  0  0  0  0  0  0  0  0  0  0
  -13.3066   10.5915  -25.8236 C   0  0  0  0  0  0  0  0  0  0  0  0
  -12.7473    9.5193  -26.4441 N   0  0  0  0  0  0  0  0  0  0  0  0
  -11.4611    9.4349  -26.1051 C   0  0  0  0  0  0  0  0  0  0  0  0
  -11.2255   10.5056  -25.2374 C   0  0  0  0  0  0  0  0  0  0  0  0
   -9.9944   10.6456  -24.7492 N   0  0  0  0  0  0  0  0  0  0  0  0
   -9.0146    9.7906  -25.0773 C   0  0  0  0  0  0  0  0  0  0  0  0
   -9.2178    8.7530  -25.9103 N   0  0  0  0  0  0  0  0  0  0  0  0
  -10.4500    8.5573  -26.4402 C   0  0  0  0  0  0  0  0  0  0  0  0
  -10.6617    7.4631  -27.3179 N   0  0  0  0  0  0  0  0  0  0  0  0
  -10.8713   13.6403  -25.4468 O   0  0  0  0  0  0  0  0  0  0  0  0
  -11.8172   14.1675  -22.1261 O   0  0  0  0  0  0  0  0  0  0  0  0
  -13.4063   15.6052  -25.8304 H   0  0  0  0  0  0  0  0  0  0  0  0
  -12.9086   16.5184  -24.3870 H   0  0  0  0  0  0  0  0  0  0  0  0
  -13.9696   14.2998  -23.1093 H   0  0  0  0  0  0  0  0  0  0  0  0
  -11.3327   15.3489  -23.7526 H   0  0  0  0  0  0  0  0  0  0  0  0
  -10.4863   12.7408  -23.6142 H   0  0  0  0  0  0  0  0  0  0  0  0
  -12.8383   12.1446  -23.2261 H   0  0  0  0  0  0  0  0  0  0  0  0
  -14.3513   10.8584  -25.9518 H   0  0  0  0  0  0  0  0  0  0  0  0
   -8.0097    9.9056  -24.6783 H   0  0  0  0  0  0  0  0  0  0  0  0
  -10.5147    6.4909  -26.9698 H   0  0  0  0  0  0  0  0  0  0  0  0
  -10.9615    7.5713  -28.3111 H   0  0  0  0  0  0  0  0  0  0  0  0
  -11.5391   13.4927  -26.1564 H   0  0  0  0  0  0  0  0  0  0  0  0
  -12.7438   13.9778  -21.8126 H   0  0  0  0  0  0  0  0  0  0  0  0
  1  2  1  0
  2  3  1  0
  3  4  1  0
  4  5  1  0
  5  6  1  0
  5  7  1  0
  7  8  1  0
  8  9  2  0
  9 10  1  0
 10 11  2  0
 11 12  1  0
 12 13  2  0
 13 14  1  0
 14 15  2  0
 15 16  1  0
  4 17  1  0
  3 18  1  0
  6  2  1  0
 11  7  1  0
 15 10  1  0
  1 19  1  0
  1 20  1  0
  2 21  1  0
  3 22  1  0
  4 23  1  0
  5 24  1  0
  8 25  1  0
 13 26  1  0
 16 27  1  0
 16 28  1  0
 17 29  1  0
 18 30  1  0
M  RAD  1   1   2
M  END
$$$$

     RDKit          3D

 30 32  0  0  0  0  0  0  0  0999 V2000
  -10.9820   14.4713  -22.1834 C   0  0  0  0  0  3  0  0  0  0  0  0
  -11.4301   13.9639  -23.5294 C   0  0  0  0  0  0  0  0  0  0  0  0
  -12.7405   14.6003  -23.9600 C   0  0  0  0  0  0  0  0  0  0  0  0
  -13.0637   13.6652  -25.1355 C   0  0  0  0  0  0  0  0  0  0  0  0
  -12.6019   12.3629  -24.5601 C   0  0  0  0  0  0  0  0  0  0  0  0
  -11.7240   12.6250  -23.5406 O   0  0  0  0  0  0  0  0  0  0  0  0
  -11.9999   11.4954  -25.5556 N   0  0  0  0  0  0  0  0  0  0  0  0
  -11.9038   11.6553  -26.8882 C   0  0  0  0  0  0  0  0  0  0  0  0
  -11.2631   10.5931  -27.4012 N   0  0  0  0  0  0  0  0  0  0  0  0
  -10.9448    9.7429  -26.3878 C   0  0  0  0  0  0  0  0  0  0  0  0
  -11.4160   10.3252  -25.2280 C   0  0  0  0  0  0  0  0  0  0  0  0
  -11.2144    9.6563  -24.0733 N   0  0  0  0  0  0  0  0  0  0  0  0
  -10.5912    8.4764  -23.9950 C   0  0  0  0  0  0  0  0  0  0  0  0
  -10.1434    7.9345  -25.1419 N   0  0  0  0  0  0  0  0  0  0  0  0
  -10.2972    8.5253  -26.3396 C   0  0  0  0  0  0  0  0  0  0  0  0
   -9.8081    7.9127  -27.5114 N   0  0  0  0  0  0  0  0  0  0  0  0
  -14.4013   13.6970  -25.4628 O   0  0  0  0  0  0  0  0  0  0  0  0
  -12.6016   15.9053  -24.3623 O   0  0  0  0  0  0  0  0  0  0  0  0
  -10.0291   13.9593  -21.9447 H   0  0  0  0  0  0  0  0  0  0  0  0
  -10.7111   15.5510  -22.3252 H   0  0  0  0  0  0  0  0  0  0  0  0
  -10.6755   14.1583  -24.3276 H   0  0  0  0  0  0  0  0  0  0  0  0
  -13.4617   14.4516  -23.1300 H   0  0  0  0  0  0  0  0  0  0  0  0
  -12.4042   14.0314  -25.9698 H   0  0  0  0  0  0  0  0  0  0  0  0
  -13.5080   11.8590  -24.1208 H   0  0  0  0  0  0  0  0  0  0  0  0
  -12.3012   12.5271  -27.4075 H   0  0  0  0  0  0  0  0  0  0  0  0
  -10.4423    7.9566  -23.0413 H   0  0  0  0  0  0  0  0  0  0  0  0
   -8.8639    8.1574  -27.8514 H   0  0  0  0  0  0  0  0  0  0  0  0
  -10.4010    7.2291  -28.0115 H   0  0  0  0  0  0  0  0  0  0  0  0
  -14.5058   13.8771  -26.4431 H   0  0  0  0  0  0  0  0  0  0  0  0
  -11.7341   15.9895  -24.8434 H   0  0  0  0  0  0  0  0  0  0  0  0
  1  2  1  0
  2  3  1  0
  3  4  1  0
  4  5  1  0
  5  6  1  0
  5  7  1  0
  7  8  1  0
  8  9  2  0
  9 10  1  0
 10 11  2  0
 11 12  1  0
 12 13  2  0
 13 14  1  0
 14 15  2  0
 15 16  1  0
  4 17  1  0
  3 18  1  0
  6  2  1  0
 11  7  1  0
 15 10  1  0
  1 19  1  0
  1 20  1  0
  2 21  1  0
  3 22  1  0
  4 23  1  0
  5 24  1  0
  8 25  1  0
 13 26  1  0
 16 27  1  0
 16 28  1  0
 17 29  1  0
 18 30  1  0
M  RAD  1   1   2
M  END
$$$$

     RDKit          3D

 30 32  0  0  0  0  0  0  0  0999 V2000
  -12.4622   14.0697  -22.3597 C   0  0  0  0  0  3  0  0  0  0  0  0
  -11.3646   14.1275  -23.3910 C   0  0  0  0  0  0  0  0  0  0  0  0
  -11.9621   14.8005  -24.6306 C   0  0  0  0  0  0  0  0  0  0  0  0
  -12.9508   13.7020  -25.0479 C   0  0  0  0  0  0  0  0  0  0  0  0
  -12.2966   12.4823  -24.5206 C   0  0  0  0  0  0  0  0  0  0  0  0
  -11.1031   12.8514  -23.9088 O   0  0  0  0  0  0  0  0  0  0  0  0
  -11.9759   11.4956  -25.5264 N   0  0  0  0  0  0  0  0  0  0  0  0
  -12.2229   11.4513  -26.8319 C   0  0  0  0  0  0  0  0  0  0  0  0
  -11.7354   10.3263  -27.3920 N   0  0  0  0  0  0  0  0  0  0  0  0
  -11.1601    9.6363  -26.4027 C   0  0  0  0  0  0  0  0  0  0  0  0
  -11.3079   10.3617  -25.2390 C   0  0  0  0  0  0  0  0  0  0  0  0
  -10.7860    9.8222  -24.1176 N   0  0  0  0  0  0  0  0  0  0  0  0
  -10.1515    8.6445  -24.1047 C   0  0  0  0  0  0  0  0  0  0  0  0
  -10.0084    7.9419  -25.2320 N   0  0  0  0  0  0  0  0  0  0  0  0
  -10.5017    8.4106  -26.3985 C   0  0  0  0  0  0  0  0  0  0  0  0
  -10.3318    7.6454  -27.5588 N   0  0  0  0  0  0  0  0  0  0  0  0
  -14.1461   13.9056  -24.3455 O   0  0  0  0  0  0  0  0  0  0  0  0
  -12.6599   15.9331  -24.2482 O   0  0  0  0  0  0  0  0  0  0  0  0
  -12.4534   13.1518  -21.7624 H   0  0  0  0  0  0  0  0  0  0  0  0
  -12.4691   14.9984  -21.7609 H   0  0  0  0  0  0  0  0  0  0  0  0
  -10.4644   14.6323  -23.0496 H   0  0  0  0  0  0  0  0  0  0  0  0
  -11.2138   14.9727  -25.4113 H   0  0  0  0  0  0  0  0  0  0  0  0
  -13.0633   13.7712  -26.1255 H   0  0  0  0  0  0  0  0  0  0  0  0
  -12.9001   11.9496  -23.7330 H   0  0  0  0  0  0  0  0  0  0  0  0
  -12.7382   12.1991  -27.3823 H   0  0  0  0  0  0  0  0  0  0  0  0
   -9.7662    8.3025  -23.1314 H   0  0  0  0  0  0  0  0  0  0  0  0
   -9.4398    7.6675  -28.0842 H   0  0  0  0  0  0  0  0  0  0  0  0
  -11.0998    7.0448  -27.9080 H   0  0  0  0  0  0  0  0  0  0  0  0
  -14.3936   13.0887  -23.8502 H   0  0  0  0  0  0  0  0  0  0  0  0
  -13.1454   16.2574  -25.0719 H   0  0  0  0  0  0  0  0  0  0  0  0
  1  2  1  0
  2  3  1  0
  3  4  1  0
  4  5  1  0
  5  6  1  0
  5  7  1  0
  7  8  1  0
  8  9  2  0
  9 10  1  0
 10 11  2  0
 11 12  1  0
 12 13  2  0
 13 14  1  0
 14 15  2  0
 15 16  1  0
  4 17  1  0
  3 18  1  0
  6  2  1  0
 11  7  1  0
 15 10  1  0
  1 19  1  0
  1 20  1  0
  2 21  1  0
  3 22  1  0
  4 23  1  0
  5 24  1  0
  8 25  1  0
 13 26  1  0
 16 27  1  0
 16 28  1  0
 17 29  1  0
 18 30  1  0
M  RAD  1   1   2
M  END
$$$$

     RDKit          3D

 30 32  0  0  0  0  0  0  0  0999 V2000
  -14.3914   15.0874  -24.2609 C   0  0  0  0  0  3  0  0  0  0  0  0
  -13.2912   14.1350  -24.6704 C   0  0  0  0  0  0  0  0  0  0  0  0
  -11.9314   14.6516  -24.1849 C   0  0  0  0  0  0  0  0  0  0  0  0
  -11.1339   13.3695  -24.1568 C   0  0  0  0  0  0  0  0  0  0  0  0
  -12.1900   12.3325  -23.9333 C   0  0  0  0  0  0  0  0  0  0  0  0
  -13.4235   12.9792  -23.9387 O   0  0  0  0  0  0  0  0  0  0  0  0
  -12.1658   11.2711  -24.8917 N   0  0  0  0  0  0  0  0  0  0  0  0
  -13.1543   10.8927  -25.7219 C   0  0  0  0  0  0  0  0  0  0  0  0
  -12.7347    9.8595  -26.4607 N   0  0  0  0  0  0  0  0  0  0  0  0
  -11.4712    9.5497  -26.1247 C   0  0  0  0  0  0  0  0  0  0  0  0
  -11.1258   10.4510  -25.1316 C   0  0  0  0  0  0  0  0  0  0  0  0
   -9.8989   10.3795  -24.5957 N   0  0  0  0  0  0  0  0  0  0  0  0
   -8.9826    9.4735  -24.9749 C   0  0  0  0  0  0  0  0  0  0  0  0
   -9.3376    8.6072  -25.9406 N   0  0  0  0  0  0  0  0  0  0  0  0
  -10.5458    8.6095  -26.5306 C   0  0  0  0  0  0  0  0  0  0  0  0
  -10.8951    7.6744  -27.5565 N   0  0  0  0  0  0  0  0  0  0  0  0
  -10.3975   13.1711  -25.3178 O   0  0  0  0  0  0  0  0  0  0  0  0
  -12.0563   15.1138  -22.8644 O   0  0  0  0  0  0  0  0  0  0  0  0
  -15.2880   14.5445  -23.9022 H   0  0  0  0  0  0  0  0  0  0  0  0
  -14.6946   15.6469  -25.1775 H   0  0  0  0  0  0  0  0  0  0  0  0
  -13.2031   14.0041  -25.7480 H   0  0  0  0  0  0  0  0  0  0  0  0
  -11.5323   15.4095  -24.8620 H   0  0  0  0  0  0  0  0  0  0  0  0
  -10.4073   13.4554  -23.3174 H   0  0  0  0  0  0  0  0  0  0  0  0
  -12.0540   11.9580  -22.8782 H   0  0  0  0  0  0  0  0  0  0  0  0
  -14.1349   11.3577  -25.7774 H   0  0  0  0  0  0  0  0  0  0  0  0
   -7.9899    9.4487  -24.5111 H   0  0  0  0  0  0  0  0  0  0  0  0
  -10.2673    7.5146  -28.3902 H   0  0  0  0  0  0  0  0  0  0  0  0
  -11.7768    7.1100  -27.5329 H   0  0  0  0  0  0  0  0  0  0  0  0
  -10.7228   13.6966  -26.0867 H   0  0  0  0  0  0  0  0  0  0  0  0
  -12.9028   15.5718  -22.7062 H   0  0  0  0  0  0  0  0  0  0  0  0
  1  2  1  0
  2  3  1  0
  3  4  1  0
  4  5  1  0
  5  6  1  0
  5  7  1  0
  7  8  1  0
  8  9  2  0
  9 10  1  0
 10 11  2  0
 11 12  1  0
 12 13  2  0
 13 14  1  0
 14 15  2  0
 15 16  1  0
  4 17  1  0
  3 18  1  0
  6  2  1  0
 11  7  1  0
 15 10  1  0
  1 19  1  0
  1 20  1  0
  2 21  1  0
  3 22  1  0
  4 23  1  0
  5 24  1  0
  8 25  1  0
 13 26  1  0
 16 27  1  0
 16 28  1  0
 17 29  1  0
 18 30  1  0
M  RAD  1   1   2
M  END
$$$$

     RDKit          3D

 30 32  0  0  0  0  0  0  0  0999 V2000
  -11.1879   14.9855  -22.3683 C   0  0  0  0  0  3  0  0  0  0  0  0
  -11.8155   13.8264  -23.0810 C   0  0  0  0  0  0  0  0  0  0  0  0
  -13.0159   14.3184  -23.8602 C   0  0  0  0  0  0  0  0  0  0  0  0
  -13.0988   13.2306  -24.9226 C   0  0  0  0  0  0  0  0  0  0  0  0
  -11.5948   13.0429  -25.1656 C   0  0  0  0  0  0  0  0  0  0  0  0
  -10.9886   13.1660  -23.9444 O   0  0  0  0  0  0  0  0  0  0  0  0
  -11.3063   11.8381  -25.8728 N   0  0  0  0  0  0  0  0  0  0  0  0
  -11.1250   11.7384  -27.2056 C   0  0  0  0  0  0  0  0  0  0  0  0
  -10.8707   10.4635  -27.5421 N   0  0  0  0  0  0  0  0  0  0  0  0
  -10.8847    9.7125  -26.4144 C   0  0  0  0  0  0  0  0  0  0  0  0
  -11.1590   10.6012  -25.3950 C   0  0  0  0  0  0  0  0  0  0  0  0
  -11.2327   10.1200  -24.1492 N   0  0  0  0  0  0  0  0  0  0  0  0
  -11.0442    8.8153  -23.9129 C   0  0  0  0  0  0  0  0  0  0  0  0
  -10.7728    7.9259  -24.9081 N   0  0  0  0  0  0  0  0  0  0  0  0
  -10.6921    8.3754  -26.1676 C   0  0  0  0  0  0  0  0  0  0  0  0
  -10.4108    7.4625  -27.2114 N   0  0  0  0  0  0  0  0  0  0  0  0
  -13.7571   13.6296  -26.0533 O   0  0  0  0  0  0  0  0  0  0  0  0
  -14.1700   14.3558  -23.0816 O   0  0  0  0  0  0  0  0  0  0  0  0
  -10.5002   14.6775  -21.5554 H   0  0  0  0  0  0  0  0  0  0  0  0
  -10.7697   15.7402  -23.0396 H   0  0  0  0  0  0  0  0  0  0  0  0
  -12.1327   13.0948  -22.2898 H   0  0  0  0  0  0  0  0  0  0  0  0
  -12.7540   15.2868  -24.3055 H   0  0  0  0  0  0  0  0  0  0  0  0
  -13.4543   12.3095  -24.4608 H   0  0  0  0  0  0  0  0  0  0  0  0
  -11.2943   13.9380  -25.7776 H   0  0  0  0  0  0  0  0  0  0  0  0
  -11.1684   12.5378  -27.9328 H   0  0  0  0  0  0  0  0  0  0  0  0
  -11.1026    8.4202  -22.9073 H   0  0  0  0  0  0  0  0  0  0  0  0
  -10.6708    7.7038  -28.1998 H   0  0  0  0  0  0  0  0  0  0  0  0
   -9.9538    6.5448  -27.0746 H   0  0  0  0  0  0  0  0  0  0  0  0
  -13.1657   13.9076  -26.8019 H   0  0  0  0  0  0  0  0  0  0  0  0
  -14.0043   15.0367  -22.3813 H   0  0  0  0  0  0  0  0  0  0  0  0
  1  2  1  0
  2  3  1  0
  3  4  1  0
  4  5  1  0
  5  6  1  0
  5  7  1  0
  7  8  1  0
  8  9  2  0
  9 10  1  0
 10 11  2  0
 11 12  1  0
 12 13  2  0
 13 14  1  0
 14 15  2  0
 15 16  1  0
  4 17  1  0
  3 18  1  0
  6  2  1  0
 11  7  1  0
 15 10  1  0
  1 19  1  0
  1 20  1  0
  2 21  1  0
  3 22  1  0
  4 23  1  0
  5 24  1  0
  8 25  1  0
 13 26  1  0
 16 27  1  0
 16 28  1  0
 17 29  1  0
 18 30  1  0
M  RAD  1   1   2
M  END
$$$$

     RDKit          3D

 30 32  0  0  0  0  0  0  0  0999 V2000
  -11.5881   14.3203  -21.9954 C   0  0  0  0  0  3  0  0  0  0  0  0
  -12.6047   13.6908  -22.9384 C   0  0  0  0  0  0  0  0  0  0  0  0
  -12.8578   14.6709  -24.0440 C   0  0  0  0  0  0  0  0  0  0  0  0
  -12.3436   13.8910  -25.2616 C   0  0  0  0  0  0  0  0  0  0  0  0
  -12.6759   12.4679  -24.7990 C   0  0  0  0  0  0  0  0  0  0  0  0
  -12.1736   12.5120  -23.4856 O   0  0  0  0  0  0  0  0  0  0  0  0
  -12.0139   11.4883  -25.6032 N   0  0  0  0  0  0  0  0  0  0  0  0
  -11.8444   11.6103  -26.9331 C   0  0  0  0  0  0  0  0  0  0  0  0
  -11.1832   10.5172  -27.3909 N   0  0  0  0  0  0  0  0  0  0  0  0
  -10.9285    9.6972  -26.3648 C   0  0  0  0  0  0  0  0  0  0  0  0
  -11.4521   10.3164  -25.2594 C   0  0  0  0  0  0  0  0  0  0  0  0
  -11.3239    9.6790  -24.0654 N   0  0  0  0  0  0  0  0  0  0  0  0
  -10.7004    8.4812  -23.9933 C   0  0  0  0  0  0  0  0  0  0  0  0
  -10.1851    7.8679  -25.0697 N   0  0  0  0  0  0  0  0  0  0  0  0
  -10.2866    8.4653  -26.2943 C   0  0  0  0  0  0  0  0  0  0  0  0
   -9.7549    7.8465  -27.4466 N   0  0  0  0  0  0  0  0  0  0  0  0
  -13.0242   14.2241  -26.4076 O   0  0  0  0  0  0  0  0  0  0  0  0
  -12.1861   15.8619  -23.9038 O   0  0  0  0  0  0  0  0  0  0  0  0
  -11.6020   13.8392  -20.9915 H   0  0  0  0  0  0  0  0  0  0  0  0
  -11.9541   15.3721  -21.8087 H   0  0  0  0  0  0  0  0  0  0  0  0
  -13.5407   13.5824  -22.3367 H   0  0  0  0  0  0  0  0  0  0  0  0
  -13.9517   14.8244  -24.2402 H   0  0  0  0  0  0  0  0  0  0  0  0
  -11.2566   13.9911  -25.3159 H   0  0  0  0  0  0  0  0  0  0  0  0
  -13.7740   12.3412  -24.7660 H   0  0  0  0  0  0  0  0  0  0  0  0
  -12.1515   12.4084  -27.5961 H   0  0  0  0  0  0  0  0  0  0  0  0
  -10.6253    8.0187  -23.0256 H   0  0  0  0  0  0  0  0  0  0  0  0
   -9.9546    6.8464  -27.6177 H   0  0  0  0  0  0  0  0  0  0  0  0
   -9.1710    8.3627  -28.1263 H   0  0  0  0  0  0  0  0  0  0  0  0
  -13.1019   15.2102  -26.4808 H   0  0  0  0  0  0  0  0  0  0  0  0
  -12.7075   16.5480  -24.4284 H   0  0  0  0  0  0  0  0  0  0  0  0
  1  2  1  0
  2  3  1  0
  3  4  1  0
  4  5  1  0
  5  6  1  0
  5  7  1  0
  7  8  1  0
  8  9  2  0
  9 10  1  0
 10 11  2  0
 11 12  1  0
 12 13  2  0
 13 14  1  0
 14 15  2  0
 15 16  1  0
  4 17  1  0
  3 18  1  0
  6  2  1  0
 11  7  1  0
 15 10  1  0
  1 19  1  0
  1 20  1  0
  2 21  1  0
  3 22  1  0
  4 23  1  0
  5 24  1  0
  8 25  1  0
 13 26  1  0
 16 27  1  0
 16 28  1  0
 17 29  1  0
 18 30  1  0
M  RAD  1   1   2
M  END
$$$$

     RDKit          3D

 30 32  0  0  0  0  0  0  0  0999 V2000
  -11.7591   13.8662  -21.6679 C   0  0  0  0  0  3  0  0  0  0  0  0
  -12.5637   13.6474  -22.9400 C   0  0  0  0  0  0  0  0  0  0  0  0
  -12.3141   14.7568  -23.9378 C   0  0  0  0  0  0  0  0  0  0  0  0
  -11.7605   13.9805  -25.1275 C   0  0  0  0  0  0  0  0  0  0  0  0
  -12.4843   12.6427  -24.9208 C   0  0  0  0  0  0  0  0  0  0  0  0
  -12.2694   12.4568  -23.5547 O   0  0  0  0  0  0  0  0  0  0  0  0
  -11.8756   11.6142  -25.7125 N   0  0  0  0  0  0  0  0  0  0  0  0
  -11.6141   11.7300  -27.0252 C   0  0  0  0  0  0  0  0  0  0  0  0
  -11.0499   10.5672  -27.3938 N   0  0  0  0  0  0  0  0  0  0  0  0
  -10.9453    9.7186  -26.3582 C   0  0  0  0  0  0  0  0  0  0  0  0
  -11.4786   10.4031  -25.2865 C   0  0  0  0  0  0  0  0  0  0  0  0
  -11.5039    9.7808  -24.0938 N   0  0  0  0  0  0  0  0  0  0  0  0
  -11.0206    8.5328  -23.9702 C   0  0  0  0  0  0  0  0  0  0  0  0
  -10.4976    7.8563  -25.0119 N   0  0  0  0  0  0  0  0  0  0  0  0
  -10.4452    8.4232  -26.2233 C   0  0  0  0  0  0  0  0  0  0  0  0
   -9.9109    7.7795  -27.3704 N   0  0  0  0  0  0  0  0  0  0  0  0
  -12.0773   14.5570  -26.3288 O   0  0  0  0  0  0  0  0  0  0  0  0
  -13.5568   15.2947  -24.3327 O   0  0  0  0  0  0  0  0  0  0  0  0
  -11.3168   14.8814  -21.6550 H   0  0  0  0  0  0  0  0  0  0  0  0
  -10.9850   13.0713  -21.5359 H   0  0  0  0  0  0  0  0  0  0  0  0
  -13.6554   13.6149  -22.6531 H   0  0  0  0  0  0  0  0  0  0  0  0
  -11.6201   15.5217  -23.5787 H   0  0  0  0  0  0  0  0  0  0  0  0
  -10.6878   13.7685  -25.0158 H   0  0  0  0  0  0  0  0  0  0  0  0
  -13.5486   12.7830  -25.1676 H   0  0  0  0  0  0  0  0  0  0  0  0
  -11.8196   12.6009  -27.6709 H   0  0  0  0  0  0  0  0  0  0  0  0
  -11.0309    8.0072  -23.0097 H   0  0  0  0  0  0  0  0  0  0  0  0
  -10.4581    7.1335  -27.9770 H   0  0  0  0  0  0  0  0  0  0  0  0
   -8.9164    7.9707  -27.6095 H   0  0  0  0  0  0  0  0  0  0  0  0
  -11.2270   14.9363  -26.7104 H   0  0  0  0  0  0  0  0  0  0  0  0
  -14.2700   15.0030  -23.6859 H   0  0  0  0  0  0  0  0  0  0  0  0
  1  2  1  0
  2  3  1  0
  3  4  1  0
  4  5  1  0
  5  6  1  0
  5  7  1  0
  7  8  1  0
  8  9  2  0
  9 10  1  0
 10 11  2  0
 11 12  1  0
 12 13  2  0
 13 14  1  0
 14 15  2  0
 15 16  1  0
  4 17  1  0
  3 18  1  0
  6  2  1  0
 11  7  1  0
 15 10  1  0
  1 19  1  0
  1 20  1  0
  2 21  1  0
  3 22  1  0
  4 23  1  0
  5 24  1  0
  8 25  1  0
 13 26  1  0
 16 27  1  0
 16 28  1  0
 17 29  1  0
 18 30  1  0
M  RAD  1   1   2
M  END
$$$$

     RDKit          3D

 30 32  0  0  0  0  0  0  0  0999 V2000
  -13.3352   15.4541  -25.5555 C   0  0  0  0  0  3  0  0  0  0  0  0
  -13.0018   14.3913  -24.5602 C   0  0  0  0  0  0  0  0  0  0  0  0
  -11.5128   14.2840  -24.2815 C   0  0  0  0  0  0  0  0  0  0  0  0
  -11.4674   12.9180  -23.5869 C   0  0  0  0  0  0  0  0  0  0  0  0
  -12.6644   12.2460  -24.1461 C   0  0  0  0  0  0  0  0  0  0  0  0
  -13.2743   13.1080  -25.0488 O   0  0  0  0  0  0  0  0  0  0  0  0
  -12.4232   10.9411  -24.6962 N   0  0  0  0  0  0  0  0  0  0  0  0
  -13.1955    9.8491  -24.5964 C   0  0  0  0  0  0  0  0  0  0  0  0
  -12.6267    8.8199  -25.2480 N   0  0  0  0  0  0  0  0  0  0  0  0
  -11.4600    9.2525  -25.7825 C   0  0  0  0  0  0  0  0  0  0  0  0
  -11.3536   10.5734  -25.4272 C   0  0  0  0  0  0  0  0  0  0  0  0
  -10.2850   11.2994  -25.8128 N   0  0  0  0  0  0  0  0  0  0  0  0
   -9.3438   10.6846  -26.5478 C   0  0  0  0  0  0  0  0  0  0  0  0
   -9.4190    9.3904  -26.9126 N   0  0  0  0  0  0  0  0  0  0  0  0
  -10.4732    8.6416  -26.5425 C   0  0  0  0  0  0  0  0  0  0  0  0
  -10.6318    7.2789  -26.8809 N   0  0  0  0  0  0  0  0  0  0  0  0
  -11.5895   13.1888  -22.2076 O   0  0  0  0  0  0  0  0  0  0  0  0
  -11.0699   15.2868  -23.4226 O   0  0  0  0  0  0  0  0  0  0  0  0
  -14.1456   15.1642  -26.2584 H   0  0  0  0  0  0  0  0  0  0  0  0
  -13.6313   16.4007  -25.0163 H   0  0  0  0  0  0  0  0  0  0  0  0
  -13.5138   14.4919  -23.5917 H   0  0  0  0  0  0  0  0  0  0  0  0
  -10.9878   14.2701  -25.2474 H   0  0  0  0  0  0  0  0  0  0  0  0
  -10.5184   12.4103  -23.7209 H   0  0  0  0  0  0  0  0  0  0  0  0
  -13.4008   12.1086  -23.3035 H   0  0  0  0  0  0  0  0  0  0  0  0
  -14.1452    9.7517  -24.0810 H   0  0  0  0  0  0  0  0  0  0  0  0
   -8.4566   11.2426  -26.8821 H   0  0  0  0  0  0  0  0  0  0  0  0
  -10.6272    7.0359  -27.8971 H   0  0  0  0  0  0  0  0  0  0  0  0
  -10.7520    6.5100  -26.1782 H   0  0  0  0  0  0  0  0  0  0  0  0
  -11.9132   12.4006  -21.7091 H   0  0  0  0  0  0  0  0  0  0  0  0
  -10.2887   15.7357  -23.8627 H   0  0  0  0  0  0  0  0  0  0  0  0
  1  2  1  0
  2  3  1  0
  3  4  1  0
  4  5  1  0
  5  6  1  0
  5  7  1  0
  7  8  1  0
  8  9  2  0
  9 10  1  0
 10 11  2  0
 11 12  1  0
 12 13  2  0
 13 14  1  0
 14 15  2  0
 15 16  1  0
  4 17  1  0
  3 18  1  0
  6  2  1  0
 11  7  1  0
 15 10  1  0
  1 19  1  0
  1 20  1  0
  2 21  1  0
  3 22  1  0
  4 23  1  0
  5 24  1  0
  8 25  1  0
 13 26  1  0
 16 27  1  0
 16 28  1  0
 17 29  1  0
 18 30  1  0
M  RAD  1   1   2
M  END
$$$$

     RDKit          3D

 30 32  0  0  0  0  0  0  0  0999 V2000
  -13.8966   15.1884  -25.0419 C   0  0  0  0  0  3  0  0  0  0  0  0
  -12.5197   14.6674  -24.7602 C   0  0  0  0  0  0  0  0  0  0  0  0
  -12.3998   14.3074  -23.3159 C   0  0  0  0  0  0  0  0  0  0  0  0
  -12.0958   12.8023  -23.3874 C   0  0  0  0  0  0  0  0  0  0  0  0
  -12.7403   12.5092  -24.7347 C   0  0  0  0  0  0  0  0  0  0  0  0
  -12.2240   13.5308  -25.5083 O   0  0  0  0  0  0  0  0  0  0  0  0
  -12.4935   11.2020  -25.2143 N   0  0  0  0  0  0  0  0  0  0  0  0
  -13.4561   10.2781  -25.4755 C   0  0  0  0  0  0  0  0  0  0  0  0
  -12.8651    9.1646  -25.9101 N   0  0  0  0  0  0  0  0  0  0  0  0
  -11.5516    9.3777  -25.9246 C   0  0  0  0  0  0  0  0  0  0  0  0
  -11.2962   10.6636  -25.4869 C   0  0  0  0  0  0  0  0  0  0  0  0
  -10.0224   11.0560  -25.4352 N   0  0  0  0  0  0  0  0  0  0  0  0
   -8.9746   10.2885  -25.7786 C   0  0  0  0  0  0  0  0  0  0  0  0
   -9.2291    9.0381  -26.2038 N   0  0  0  0  0  0  0  0  0  0  0  0
  -10.4878    8.5854  -26.2779 C   0  0  0  0  0  0  0  0  0  0  0  0
  -10.7394    7.2586  -26.7303 N   0  0  0  0  0  0  0  0  0  0  0  0
  -10.7152   12.6940  -23.4338 O   0  0  0  0  0  0  0  0  0  0  0  0
  -11.4198   14.9958  -22.6364 O   0  0  0  0  0  0  0  0  0  0  0  0
  -13.9654   16.2251  -24.6447 H   0  0  0  0  0  0  0  0  0  0  0  0
  -14.1584   15.2367  -26.1039 H   0  0  0  0  0  0  0  0  0  0  0  0
  -11.7517   15.4335  -25.0601 H   0  0  0  0  0  0  0  0  0  0  0  0
  -13.3932   14.3607  -22.7823 H   0  0  0  0  0  0  0  0  0  0  0  0
  -12.5467   12.2499  -22.5652 H   0  0  0  0  0  0  0  0  0  0  0  0
  -13.8252   12.7109  -24.6014 H   0  0  0  0  0  0  0  0  0  0  0  0
  -14.5321   10.3935  -25.3610 H   0  0  0  0  0  0  0  0  0  0  0  0
   -7.9387   10.6382  -25.7258 H   0  0  0  0  0  0  0  0  0  0  0  0
   -9.9975    6.7450  -27.2522 H   0  0  0  0  0  0  0  0  0  0  0  0
  -11.6510    6.7887  -26.5508 H   0  0  0  0  0  0  0  0  0  0  0  0
  -10.3836   12.7822  -22.5174 H   0  0  0  0  0  0  0  0  0  0  0  0
  -10.5983   14.9535  -23.1526 H   0  0  0  0  0  0  0  0  0  0  0  0
  1  2  1  0
  2  3  1  0
  3  4  1  0
  4  5  1  0
  5  6  1  0
  5  7  1  0
  7  8  1  0
  8  9  2  0
  9 10  1  0
 10 11  2  0
 11 12  1  0
 12 13  2  0
 13 14  1  0
 14 15  2  0
 15 16  1  0
  4 17  1  0
  3 18  1  0
  6  2  1  0
 11  7  1  0
 15 10  1  0
  1 19  1  0
  1 20  1  0
  2 21  1  0
  3 22  1  0
  4 23  1  0
  5 24  1  0
  8 25  1  0
 13 26  1  0
 16 27  1  0
 16 28  1  0
 17 29  1  0
 18 30  1  0
M  RAD  1   1   2
M  END
$$$$

     RDKit          3D

 30 32  0  0  0  0  0  0  0  0999 V2000
  -14.0297   15.5490  -24.7022 C   0  0  0  0  0  3  0  0  0  0  0  0
  -12.7316   14.7675  -24.7416 C   0  0  0  0  0  0  0  0  0  0  0  0
  -12.1767   14.5001  -23.3674 C   0  0  0  0  0  0  0  0  0  0  0  0
  -11.9054   12.9992  -23.4119 C   0  0  0  0  0  0  0  0  0  0  0  0
  -11.9307   12.7714  -24.9023 C   0  0  0  0  0  0  0  0  0  0  0  0
  -13.0523   13.5005  -25.2771 O   0  0  0  0  0  0  0  0  0  0  0  0
  -11.9944   11.3949  -25.2581 N   0  0  0  0  0  0  0  0  0  0  0  0
  -13.0814   10.6092  -25.3108 C   0  0  0  0  0  0  0  0  0  0  0  0
  -12.7486    9.3666  -25.6879 N   0  0  0  0  0  0  0  0  0  0  0  0
  -11.4087    9.3319  -25.8889 C   0  0  0  0  0  0  0  0  0  0  0  0
  -10.9631   10.6065  -25.6147 C   0  0  0  0  0  0  0  0  0  0  0  0
   -9.6251   10.8202  -25.7495 N   0  0  0  0  0  0  0  0  0  0  0  0
   -8.7692    9.8529  -26.1285 C   0  0  0  0  0  0  0  0  0  0  0  0
   -9.2182    8.6113  -26.3934 N   0  0  0  0  0  0  0  0  0  0  0  0
  -10.5404    8.3253  -26.2800 C   0  0  0  0  0  0  0  0  0  0  0  0
  -10.9884    7.0240  -26.5609 N   0  0  0  0  0  0  0  0  0  0  0  0
  -12.9682   12.3600  -22.7869 O   0  0  0  0  0  0  0  0  0  0  0  0
  -10.9949   15.2174  -23.1938 O   0  0  0  0  0  0  0  0  0  0  0  0
  -14.3000   15.7489  -25.7669 H   0  0  0  0  0  0  0  0  0  0  0  0
  -14.7926   14.9096  -24.2406 H   0  0  0  0  0  0  0  0  0  0  0  0
  -12.0285   15.3156  -25.3749 H   0  0  0  0  0  0  0  0  0  0  0  0
  -12.9107   14.7574  -22.5785 H   0  0  0  0  0  0  0  0  0  0  0  0
  -10.9295   12.7495  -22.9897 H   0  0  0  0  0  0  0  0  0  0  0  0
  -11.0447   13.2984  -25.3205 H   0  0  0  0  0  0  0  0  0  0  0  0
  -14.1065   10.9005  -25.0869 H   0  0  0  0  0  0  0  0  0  0  0  0
   -7.6969   10.0659  -26.2255 H   0  0  0  0  0  0  0  0  0  0  0  0
  -10.5709    6.2345  -26.0100 H   0  0  0  0  0  0  0  0  0  0  0  0
  -11.7074    6.7822  -27.2785 H   0  0  0  0  0  0  0  0  0  0  0  0
  -12.6504   11.7478  -22.0677 H   0  0  0  0  0  0  0  0  0  0  0  0
  -10.5650   15.4173  -24.0769 H   0  0  0  0  0  0  0  0  0  0  0  0
  1  2  1  0
  2  3  1  0
  3  4  1  0
  4  5  1  0
  5  6  1  0
  5  7  1  0
  7  8  1  0
  8  9  2  0
  9 10  1  0
 10 11  2  0
 11 12  1  0
 12 13  2  0
 13 14  1  0
 14 15  2  0
 15 16  1  0
  4 17  1  0
  3 18  1  0
  6  2  1  0
 11  7  1  0
 15 10  1  0
  1 19  1  0
  1 20  1  0
  2 21  1  0
  3 22  1  0
  4 23  1  0
  5 24  1  0
  8 25  1  0
 13 26  1  0
 16 27  1  0
 16 28  1  0
 17 29  1  0
 18 30  1  0
M  RAD  1   1   2
M  END
$$$$

     RDKit          3D

 30 32  0  0  0  0  0  0  0  0999 V2000
  -10.9182   15.6474  -23.7145 C   0  0  0  0  0  3  0  0  0  0  0  0
  -11.5471   14.2615  -23.7042 C   0  0  0  0  0  0  0  0  0  0  0  0
  -13.0352   14.3601  -23.8259 C   0  0  0  0  0  0  0  0  0  0  0  0
  -13.3538   13.0508  -24.5379 C   0  0  0  0  0  0  0  0  0  0  0  0
  -12.1230   12.9863  -25.4485 C   0  0  0  0  0  0  0  0  0  0  0  0
  -11.0747   13.4481  -24.7009 O   0  0  0  0  0  0  0  0  0  0  0  0
  -11.9408   11.6439  -25.9549 N   0  0  0  0  0  0  0  0  0  0  0  0
  -12.6555   11.1793  -27.0197 C   0  0  0  0  0  0  0  0  0  0  0  0
  -12.2575    9.9030  -27.2441 N   0  0  0  0  0  0  0  0  0  0  0  0
  -11.3233    9.6045  -26.3343 C   0  0  0  0  0  0  0  0  0  0  0  0
  -11.1150   10.6797  -25.5237 C   0  0  0  0  0  0  0  0  0  0  0  0
  -10.2209   10.6460  -24.5189 N   0  0  0  0  0  0  0  0  0  0  0  0
   -9.5212    9.5122  -24.3223 C   0  0  0  0  0  0  0  0  0  0  0  0
   -9.7133    8.4536  -25.1056 N   0  0  0  0  0  0  0  0  0  0  0  0
  -10.6020    8.4419  -26.1283 C   0  0  0  0  0  0  0  0  0  0  0  0
  -10.7802    7.2918  -26.9446 N   0  0  0  0  0  0  0  0  0  0  0  0
  -13.2551   12.0261  -23.6068 O   0  0  0  0  0  0  0  0  0  0  0  0
  -13.6902   14.4720  -22.6209 O   0  0  0  0  0  0  0  0  0  0  0  0
  -10.1557   15.6913  -24.4898 H   0  0  0  0  0  0  0  0  0  0  0  0
  -10.4548   15.8432  -22.7270 H   0  0  0  0  0  0  0  0  0  0  0  0
  -11.3316   13.7562  -22.7253 H   0  0  0  0  0  0  0  0  0  0  0  0
  -13.2797   15.1686  -24.5431 H   0  0  0  0  0  0  0  0  0  0  0  0
  -14.2866   13.0755  -25.0918 H   0  0  0  0  0  0  0  0  0  0  0  0
  -12.2951   13.7008  -26.2920 H   0  0  0  0  0  0  0  0  0  0  0  0
  -13.4045   11.7079  -27.5949 H   0  0  0  0  0  0  0  0  0  0  0  0
   -8.7995    9.5123  -23.4966 H   0  0  0  0  0  0  0  0  0  0  0  0
  -10.1850    6.4703  -26.8028 H   0  0  0  0  0  0  0  0  0  0  0  0
  -11.5032    7.2955  -27.6677 H   0  0  0  0  0  0  0  0  0  0  0  0
  -12.3239   12.0283  -23.2776 H   0  0  0  0  0  0  0  0  0  0  0  0
  -13.0933   14.2428  -21.8890 H   0  0  0  0  0  0  0  0  0  0  0  0
  1  2  1  0
  2  3  1  0
  3  4  1  0
  4  5  1  0
  5  6  1  0
  5  7  1  0
  7  8  1  0
  8  9  2  0
  9 10  1  0
 10 11  2  0
 11 12  1  0
 12 13  2  0
 13 14  1  0
 14 15  2  0
 15 16  1  0
  4 17  1  0
  3 18  1  0
  6  2  1  0
 11  7  1  0
 15 10  1  0
  1 19  1  0
  1 20  1  0
  2 21  1  0
  3 22  1  0
  4 23  1  0
  5 24  1  0
  8 25  1  0
 13 26  1  0
 16 27  1  0
 16 28  1  0
 17 29  1  0
 18 30  1  0
M  RAD  1   1   2
M  END
$$$$

     RDKit          3D

 30 32  0  0  0  0  0  0  0  0999 V2000
  -12.5851   13.9983  -21.9527 C   0  0  0  0  0  3  0  0  0  0  0  0
  -13.3719   13.9110  -23.2352 C   0  0  0  0  0  0  0  0  0  0  0  0
  -12.6717   14.7900  -24.2752 C   0  0  0  0  0  0  0  0  0  0  0  0
  -11.4025   13.9877  -24.4993 C   0  0  0  0  0  0  0  0  0  0  0  0
  -11.8477   12.5914  -24.1733 C   0  0  0  0  0  0  0  0  0  0  0  0
  -13.1827   12.6507  -23.7937 O   0  0  0  0  0  0  0  0  0  0  0  0
  -11.6319   11.6506  -25.2351 N   0  0  0  0  0  0  0  0  0  0  0  0
  -11.8589   11.8178  -26.5528 C   0  0  0  0  0  0  0  0  0  0  0  0
  -11.5242   10.6927  -27.2080 N   0  0  0  0  0  0  0  0  0  0  0  0
  -11.0829    9.8027  -26.3176 C   0  0  0  0  0  0  0  0  0  0  0  0
  -11.1429   10.3867  -25.0699 C   0  0  0  0  0  0  0  0  0  0  0  0
  -10.7456    9.6724  -24.0110 N   0  0  0  0  0  0  0  0  0  0  0  0
  -10.2971    8.4132  -24.1540 C   0  0  0  0  0  0  0  0  0  0  0  0
  -10.2415    7.8504  -25.3744 N   0  0  0  0  0  0  0  0  0  0  0  0
  -10.6215    8.4988  -26.4901 C   0  0  0  0  0  0  0  0  0  0  0  0
  -10.5657    7.9114  -27.7817 N   0  0  0  0  0  0  0  0  0  0  0  0
  -10.8697   14.1419  -25.7498 O   0  0  0  0  0  0  0  0  0  0  0  0
  -13.4833   14.8402  -25.3822 O   0  0  0  0  0  0  0  0  0  0  0  0
  -13.0259   13.4204  -21.1409 H   0  0  0  0  0  0  0  0  0  0  0  0
  -12.2431   15.0022  -21.7016 H   0  0  0  0  0  0  0  0  0  0  0  0
  -14.4290   14.1427  -23.1313 H   0  0  0  0  0  0  0  0  0  0  0  0
  -12.4551   15.7954  -23.8643 H   0  0  0  0  0  0  0  0  0  0  0  0
  -10.6676   14.3800  -23.7400 H   0  0  0  0  0  0  0  0  0  0  0  0
  -11.2787   12.2608  -23.2807 H   0  0  0  0  0  0  0  0  0  0  0  0
  -12.2568   12.7396  -27.0013 H   0  0  0  0  0  0  0  0  0  0  0  0
   -9.9791    7.8512  -23.2781 H   0  0  0  0  0  0  0  0  0  0  0  0
  -10.8054    6.9041  -27.8776 H   0  0  0  0  0  0  0  0  0  0  0  0
  -10.2993    8.4205  -28.6513 H   0  0  0  0  0  0  0  0  0  0  0  0
   -9.9031   14.3412  -25.7108 H   0  0  0  0  0  0  0  0  0  0  0  0
  -13.5578   15.7996  -25.6529 H   0  0  0  0  0  0  0  0  0  0  0  0
  1  2  1  0
  2  3  1  0
  3  4  1  0
  4  5  1  0
  5  6  1  0
  5  7  1  0
  7  8  1  0
  8  9  2  0
  9 10  1  0
 10 11  2  0
 11 12  1  0
 12 13  2  0
 13 14  1  0
 14 15  2  0
 15 16  1  0
  4 17  1  0
  3 18  1  0
  6  2  1  0
 11  7  1  0
 15 10  1  0
  1 19  1  0
  1 20  1  0
  2 21  1  0
  3 22  1  0
  4 23  1  0
  5 24  1  0
  8 25  1  0
 13 26  1  0
 16 27  1  0
 16 28  1  0
 17 29  1  0
 18 30  1  0
M  RAD  1   1   2
M  END
$$$$

     RDKit          3D

 30 32  0  0  0  0  0  0  0  0999 V2000
  -11.9098   15.8941  -25.1621 C   0  0  0  0  0  3  0  0  0  0  0  0
  -11.5181   14.6130  -24.4649 C   0  0  0  0  0  0  0  0  0  0  0  0
  -12.5566   14.3068  -23.4156 C   0  0  0  0  0  0  0  0  0  0  0  0
  -12.6922   12.7894  -23.5922 C   0  0  0  0  0  0  0  0  0  0  0  0
  -12.4938   12.7156  -25.1101 C   0  0  0  0  0  0  0  0  0  0  0  0
  -11.4108   13.5363  -25.2958 O   0  0  0  0  0  0  0  0  0  0  0  0
  -12.2811   11.3690  -25.5593 N   0  0  0  0  0  0  0  0  0  0  0  0
  -13.2694   10.6055  -26.0852 C   0  0  0  0  0  0  0  0  0  0  0  0
  -12.7608    9.4047  -26.4079 N   0  0  0  0  0  0  0  0  0  0  0  0
  -11.4732    9.4169  -26.0884 C   0  0  0  0  0  0  0  0  0  0  0  0
  -11.1783   10.6369  -25.5622 C   0  0  0  0  0  0  0  0  0  0  0  0
   -9.9148   10.9315  -25.1435 N   0  0  0  0  0  0  0  0  0  0  0  0
   -8.9686    9.9807  -25.2661 C   0  0  0  0  0  0  0  0  0  0  0  0
   -9.2611    8.7752  -25.7864 N   0  0  0  0  0  0  0  0  0  0  0  0
  -10.4983    8.4518  -26.2093 C   0  0  0  0  0  0  0  0  0  0  0  0
  -10.8255    7.1874  -26.7600 N   0  0  0  0  0  0  0  0  0  0  0  0
  -13.9262   12.3366  -23.2027 O   0  0  0  0  0  0  0  0  0  0  0  0
  -12.1884   14.6564  -22.1443 O   0  0  0  0  0  0  0  0  0  0  0  0
  -11.1450   16.1790  -25.9052 H   0  0  0  0  0  0  0  0  0  0  0  0
  -11.9424   16.6825  -24.3573 H   0  0  0  0  0  0  0  0  0  0  0  0
  -10.5428   14.7688  -23.9179 H   0  0  0  0  0  0  0  0  0  0  0  0
  -13.5546   14.7567  -23.6902 H   0  0  0  0  0  0  0  0  0  0  0  0
  -11.8400   12.3312  -23.0687 H   0  0  0  0  0  0  0  0  0  0  0  0
  -13.3733   13.1772  -25.5606 H   0  0  0  0  0  0  0  0  0  0  0  0
  -14.3122   10.8732  -26.2406 H   0  0  0  0  0  0  0  0  0  0  0  0
   -7.9477   10.1480  -24.9542 H   0  0  0  0  0  0  0  0  0  0  0  0
  -11.3299    6.4944  -26.1641 H   0  0  0  0  0  0  0  0  0  0  0  0
  -10.5941    6.9012  -27.7281 H   0  0  0  0  0  0  0  0  0  0  0  0
  -13.8046   11.4979  -22.6563 H   0  0  0  0  0  0  0  0  0  0  0  0
  -13.0197   14.8657  -21.6150 H   0  0  0  0  0  0  0  0  0  0  0  0
  1  2  1  0
  2  3  1  0
  3  4  1  0
  4  5  1  0
  5  6  1  0
  5  7  1  0
  7  8  1  0
  8  9  2  0
  9 10  1  0
 10 11  2  0
 11 12  1  0
 12 13  2  0
 13 14  1  0
 14 15  2  0
 15 16  1  0
  4 17  1  0
  3 18  1  0
  6  2  1  0
 11  7  1  0
 15 10  1  0
  1 19  1  0
  1 20  1  0
  2 21  1  0
  3 22  1  0
  4 23  1  0
  5 24  1  0
  8 25  1  0
 13 26  1  0
 16 27  1  0
 16 28  1  0
 17 29  1  0
 18 30  1  0
M  RAD  1   1   2
M  END
$$$$

     RDKit          3D

 30 32  0  0  0  0  0  0  0  0999 V2000
  -12.7955   16.0863  -25.0407 C   0  0  0  0  0  3  0  0  0  0  0  0
  -12.0062   14.8701  -24.6933 C   0  0  0  0  0  0  0  0  0  0  0  0
  -12.1436   14.4438  -23.2541 C   0  0  0  0  0  0  0  0  0  0  0  0
  -12.0807   12.9151  -23.3582 C   0  0  0  0  0  0  0  0  0  0  0  0
  -11.6389   12.7473  -24.7943 C   0  0  0  0  0  0  0  0  0  0  0  0
  -12.4120   13.7333  -25.4304 O   0  0  0  0  0  0  0  0  0  0  0  0
  -11.8885   11.4347  -25.3144 N   0  0  0  0  0  0  0  0  0  0  0  0
  -13.0200   10.8343  -25.6835 C   0  0  0  0  0  0  0  0  0  0  0  0
  -12.7694    9.5854  -26.1154 N   0  0  0  0  0  0  0  0  0  0  0  0
  -11.4392    9.3507  -26.0310 C   0  0  0  0  0  0  0  0  0  0  0  0
  -10.9016   10.5151  -25.5288 C   0  0  0  0  0  0  0  0  0  0  0  0
   -9.5614   10.5582  -25.3400 N   0  0  0  0  0  0  0  0  0  0  0  0
   -8.7513    9.5231  -25.6202 C   0  0  0  0  0  0  0  0  0  0  0  0
   -9.3081    8.4027  -26.1085 N   0  0  0  0  0  0  0  0  0  0  0  0
  -10.6229    8.2864  -26.3213 C   0  0  0  0  0  0  0  0  0  0  0  0
  -11.1718    7.0961  -26.8346 N   0  0  0  0  0  0  0  0  0  0  0  0
  -13.3224   12.3452  -23.1380 O   0  0  0  0  0  0  0  0  0  0  0  0
  -13.2935   14.8802  -22.6493 O   0  0  0  0  0  0  0  0  0  0  0  0
  -12.2848   16.7284  -25.8092 H   0  0  0  0  0  0  0  0  0  0  0  0
  -13.0645   16.7135  -24.1857 H   0  0  0  0  0  0  0  0  0  0  0  0
  -10.9153   14.9908  -24.9518 H   0  0  0  0  0  0  0  0  0  0  0  0
  -11.2196   14.7762  -22.7081 H   0  0  0  0  0  0  0  0  0  0  0  0
  -11.3591   12.4841  -22.6531 H   0  0  0  0  0  0  0  0  0  0  0  0
  -10.5850   13.0205  -24.8694 H   0  0  0  0  0  0  0  0  0  0  0  0
  -13.9987   11.2841  -25.6426 H   0  0  0  0  0  0  0  0  0  0  0  0
   -7.6801    9.5189  -25.4836 H   0  0  0  0  0  0  0  0  0  0  0  0
  -11.4281    7.0053  -27.8472 H   0  0  0  0  0  0  0  0  0  0  0  0
  -11.3409    6.2727  -26.2343 H   0  0  0  0  0  0  0  0  0  0  0  0
  -14.0762   12.9721  -23.2242 H   0  0  0  0  0  0  0  0  0  0  0  0
  -14.0100   15.0989  -23.3082 H   0  0  0  0  0  0  0  0  0  0  0  0
  1  2  1  0
  2  3  1  0
  3  4  1  0
  4  5  1  0
  5  6  1  0
  5  7  1  0
  7  8  1  0
  8  9  2  0
  9 10  1  0
 10 11  2  0
 11 12  1  0
 12 13  2  0
 13 14  1  0
 14 15  2  0
 15 16  1  0
  4 17  1  0
  3 18  1  0
  6  2  1  0
 11  7  1  0
 15 10  1  0
  1 19  1  0
  1 20  1  0
  2 21  1  0
  3 22  1  0
  4 23  1  0
  5 24  1  0
  8 25  1  0
 13 26  1  0
 16 27  1  0
 16 28  1  0
 17 29  1  0
 18 30  1  0
M  RAD  1   1   2
M  END
$$$$

     RDKit          3D

 30 32  0  0  0  0  0  0  0  0999 V2000
  -13.2815   13.5134  -22.1760 C   0  0  0  0  0  3  0  0  0  0  0  0
  -13.4312   14.1113  -23.5456 C   0  0  0  0  0  0  0  0  0  0  0  0
  -12.1446   14.8184  -23.9671 C   0  0  0  0  0  0  0  0  0  0  0  0
  -11.4949   13.8014  -24.8849 C   0  0  0  0  0  0  0  0  0  0  0  0
  -12.2598   12.5562  -24.4739 C   0  0  0  0  0  0  0  0  0  0  0  0
  -13.5756   13.0562  -24.4770 O   0  0  0  0  0  0  0  0  0  0  0  0
  -12.0861   11.4737  -25.3811 N   0  0  0  0  0  0  0  0  0  0  0  0
  -12.7208   11.2465  -26.5446 C   0  0  0  0  0  0  0  0  0  0  0  0
  -12.2550   10.1033  -27.0931 N   0  0  0  0  0  0  0  0  0  0  0  0
  -11.3186    9.5824  -26.2927 C   0  0  0  0  0  0  0  0  0  0  0  0
  -11.2253   10.4546  -25.2237 C   0  0  0  0  0  0  0  0  0  0  0  0
  -10.3222   10.1211  -24.2711 N   0  0  0  0  0  0  0  0  0  0  0  0
   -9.5667    9.0118  -24.3630 C   0  0  0  0  0  0  0  0  0  0  0  0
   -9.6815    8.1697  -25.4311 N   0  0  0  0  0  0  0  0  0  0  0  0
  -10.5578    8.4416  -26.4108 C   0  0  0  0  0  0  0  0  0  0  0  0
  -10.6338    7.5305  -27.4964 N   0  0  0  0  0  0  0  0  0  0  0  0
  -10.1568   13.6035  -24.6037 O   0  0  0  0  0  0  0  0  0  0  0  0
  -12.4149   16.0125  -24.6202 O   0  0  0  0  0  0  0  0  0  0  0  0
  -13.7518   12.5108  -22.0829 H   0  0  0  0  0  0  0  0  0  0  0  0
  -13.7134   14.1442  -21.3698 H   0  0  0  0  0  0  0  0  0  0  0  0
  -14.3063   14.7613  -23.5918 H   0  0  0  0  0  0  0  0  0  0  0  0
  -11.4950   14.9529  -23.0943 H   0  0  0  0  0  0  0  0  0  0  0  0
  -11.6889   14.0445  -25.9470 H   0  0  0  0  0  0  0  0  0  0  0  0
  -12.0179   12.3334  -23.4307 H   0  0  0  0  0  0  0  0  0  0  0  0
  -13.4867   11.8443  -27.0154 H   0  0  0  0  0  0  0  0  0  0  0  0
   -8.8368    8.7306  -23.6056 H   0  0  0  0  0  0  0  0  0  0  0  0
  -10.4493    7.8007  -28.4760 H   0  0  0  0  0  0  0  0  0  0  0  0
  -10.8885    6.5100  -27.3500 H   0  0  0  0  0  0  0  0  0  0  0  0
   -9.5788   14.3356  -24.8990 H   0  0  0  0  0  0  0  0  0  0  0  0
  -13.2439   16.4119  -24.2385 H   0  0  0  0  0  0  0  0  0  0  0  0
  1  2  1  0
  2  3  1  0
  3  4  1  0
  4  5  1  0
  5  6  1  0
  5  7  1  0
  7  8  1  0
  8  9  2  0
  9 10  1  0
 10 11  2  0
 11 12  1  0
 12 13  2  0
 13 14  1  0
 14 15  2  0
 15 16  1  0
  4 17  1  0
  3 18  1  0
  6  2  1  0
 11  7  1  0
 15 10  1  0
  1 19  1  0
  1 20  1  0
  2 21  1  0
  3 22  1  0
  4 23  1  0
  5 24  1  0
  8 25  1  0
 13 26  1  0
 16 27  1  0
 16 28  1  0
 17 29  1  0
 18 30  1  0
M  RAD  1   1   2
M  END
$$$$

     RDKit          3D

 30 32  0  0  0  0  0  0  0  0999 V2000
  -12.7675   15.5751  -25.5825 C   0  0  0  0  0  3  0  0  0  0  0  0
  -11.9848   14.6847  -24.6729 C   0  0  0  0  0  0  0  0  0  0  0  0
  -12.6972   14.3420  -23.4010 C   0  0  0  0  0  0  0  0  0  0  0  0
  -12.6833   12.8257  -23.4425 C   0  0  0  0  0  0  0  0  0  0  0  0
  -12.7296   12.6159  -24.9299 C   0  0  0  0  0  0  0  0  0  0  0  0
  -11.7167   13.5028  -25.3437 O   0  0  0  0  0  0  0  0  0  0  0  0
  -12.4689   11.2775  -25.3429 N   0  0  0  0  0  0  0  0  0  0  0  0
  -13.4110   10.3536  -25.5943 C   0  0  0  0  0  0  0  0  0  0  0  0
  -12.8368    9.1842  -25.9655 N   0  0  0  0  0  0  0  0  0  0  0  0
  -11.5160    9.3694  -25.9492 C   0  0  0  0  0  0  0  0  0  0  0  0
  -11.2930   10.6615  -25.5647 C   0  0  0  0  0  0  0  0  0  0  0  0
  -10.0263   11.0872  -25.4740 N   0  0  0  0  0  0  0  0  0  0  0  0
   -9.0063   10.2569  -25.7560 C   0  0  0  0  0  0  0  0  0  0  0  0
   -9.2360    8.9865  -26.1337 N   0  0  0  0  0  0  0  0  0  0  0  0
  -10.4799    8.4781  -26.2502 C   0  0  0  0  0  0  0  0  0  0  0  0
  -10.7472    7.1522  -26.6436 N   0  0  0  0  0  0  0  0  0  0  0  0
  -11.4618   12.4252  -22.9433 O   0  0  0  0  0  0  0  0  0  0  0  0
  -12.0646   14.8292  -22.2662 O   0  0  0  0  0  0  0  0  0  0  0  0
  -13.8565   15.4335  -25.5331 H   0  0  0  0  0  0  0  0  0  0  0  0
  -12.4416   16.6256  -25.5904 H   0  0  0  0  0  0  0  0  0  0  0  0
  -11.0110   15.1947  -24.4148 H   0  0  0  0  0  0  0  0  0  0  0  0
  -13.7784   14.6423  -23.4095 H   0  0  0  0  0  0  0  0  0  0  0  0
  -13.5461   12.3851  -22.9146 H   0  0  0  0  0  0  0  0  0  0  0  0
  -13.6733   13.0364  -25.3080 H   0  0  0  0  0  0  0  0  0  0  0  0
  -14.4885   10.4498  -25.5327 H   0  0  0  0  0  0  0  0  0  0  0  0
   -7.9576   10.5812  -25.6894 H   0  0  0  0  0  0  0  0  0  0  0  0
  -10.8058    6.9170  -27.6430 H   0  0  0  0  0  0  0  0  0  0  0  0
  -10.8826    6.4248  -25.9299 H   0  0  0  0  0  0  0  0  0  0  0  0
  -10.7858   13.0984  -23.1968 H   0  0  0  0  0  0  0  0  0  0  0  0
  -12.7418   15.2688  -21.6880 H   0  0  0  0  0  0  0  0  0  0  0  0
  1  2  1  0
  2  3  1  0
  3  4  1  0
  4  5  1  0
  5  6  1  0
  5  7  1  0
  7  8  1  0
  8  9  2  0
  9 10  1  0
 10 11  2  0
 11 12  1  0
 12 13  2  0
 13 14  1  0
 14 15  2  0
 15 16  1  0
  4 17  1  0
  3 18  1  0
  6  2  1  0
 11  7  1  0
 15 10  1  0
  1 19  1  0
  1 20  1  0
  2 21  1  0
  3 22  1  0
  4 23  1  0
  5 24  1  0
  8 25  1  0
 13 26  1  0
 16 27  1  0
 16 28  1  0
 17 29  1  0
 18 30  1  0
M  RAD  1   1   2
M  END
$$$$

     RDKit          3D

 30 32  0  0  0  0  0  0  0  0999 V2000
  -12.5928   15.9733  -25.4114 C   0  0  0  0  0  3  0  0  0  0  0  0
  -12.9736   14.5962  -24.9092 C   0  0  0  0  0  0  0  0  0  0  0  0
  -12.4988   14.4872  -23.4786 C   0  0  0  0  0  0  0  0  0  0  0  0
  -12.2267   12.9780  -23.4002 C   0  0  0  0  0  0  0  0  0  0  0  0
  -11.7455   12.7277  -24.8116 C   0  0  0  0  0  0  0  0  0  0  0  0
  -12.3693   13.6178  -25.6397 O   0  0  0  0  0  0  0  0  0  0  0  0
  -11.9284   11.3647  -25.2155 N   0  0  0  0  0  0  0  0  0  0  0  0
  -13.1025   10.7347  -25.2975 C   0  0  0  0  0  0  0  0  0  0  0  0
  -12.8400    9.4651  -25.7153 N   0  0  0  0  0  0  0  0  0  0  0  0
  -11.5216    9.3125  -25.8891 C   0  0  0  0  0  0  0  0  0  0  0  0
  -10.9485   10.5158  -25.5721 C   0  0  0  0  0  0  0  0  0  0  0  0
   -9.6120   10.7002  -25.6435 N   0  0  0  0  0  0  0  0  0  0  0  0
   -8.8031    9.7154  -26.0257 C   0  0  0  0  0  0  0  0  0  0  0  0
   -9.3450    8.5283  -26.3408 N   0  0  0  0  0  0  0  0  0  0  0  0
  -10.6780    8.2899  -26.2864 C   0  0  0  0  0  0  0  0  0  0  0  0
  -11.2161    7.0393  -26.6214 N   0  0  0  0  0  0  0  0  0  0  0  0
  -11.2921   12.6698  -22.4414 O   0  0  0  0  0  0  0  0  0  0  0  0
  -13.4329   14.8920  -22.5567 O   0  0  0  0  0  0  0  0  0  0  0  0
  -13.2853   16.3218  -26.2139 H   0  0  0  0  0  0  0  0  0  0  0  0
  -12.5259   16.7130  -24.5875 H   0  0  0  0  0  0  0  0  0  0  0  0
  -14.0752   14.4328  -24.9554 H   0  0  0  0  0  0  0  0  0  0  0  0
  -11.5357   15.0372  -23.3996 H   0  0  0  0  0  0  0  0  0  0  0  0
  -13.2102   12.4880  -23.2515 H   0  0  0  0  0  0  0  0  0  0  0  0
  -10.6479   12.9959  -24.8074 H   0  0  0  0  0  0  0  0  0  0  0  0
  -14.1037   11.0750  -25.0960 H   0  0  0  0  0  0  0  0  0  0  0  0
   -7.7426    9.9215  -26.0639 H   0  0  0  0  0  0  0  0  0  0  0  0
  -12.0793    6.9975  -27.2203 H   0  0  0  0  0  0  0  0  0  0  0  0
  -10.7383    6.1835  -26.2624 H   0  0  0  0  0  0  0  0  0  0  0  0
  -11.6485   11.9862  -21.8106 H   0  0  0  0  0  0  0  0  0  0  0  0
  -13.5509   14.2465  -21.8305 H   0  0  0  0  0  0  0  0  0  0  0  0
  1  2  1  0
  2  3  1  0
  3  4  1  0
  4  5  1  0
  5  6  1  0
  5  7  1  0
  7  8  1  0
  8  9  2  0
  9 10  1  0
 10 11  2  0
 11 12  1  0
 12 13  2  0
 13 14  1  0
 14 15  2  0
 15 16  1  0
  4 17  1  0
  3 18  1  0
  6  2  1  0
 11  7  1  0
 15 10  1  0
  1 19  1  0
  1 20  1  0
  2 21  1  0
  3 22  1  0
  4 23  1  0
  5 24  1  0
  8 25  1  0
 13 26  1  0
 16 27  1  0
 16 28  1  0
 17 29  1  0
 18 30  1  0
M  RAD  1   1   2
M  END
$$$$

     RDKit          3D

 30 32  0  0  0  0  0  0  0  0999 V2000
  -12.3106   14.1488  -21.6775 C   0  0  0  0  0  3  0  0  0  0  0  0
  -12.7587   13.7574  -23.0586 C   0  0  0  0  0  0  0  0  0  0  0  0
  -12.3611   14.7438  -24.1184 C   0  0  0  0  0  0  0  0  0  0  0  0
  -12.4291   13.8904  -25.3813 C   0  0  0  0  0  0  0  0  0  0  0  0
  -12.6296   12.5071  -24.7979 C   0  0  0  0  0  0  0  0  0  0  0  0
  -12.0971   12.5894  -23.5038 O   0  0  0  0  0  0  0  0  0  0  0  0
  -12.0044   11.5048  -25.5986 N   0  0  0  0  0  0  0  0  0  0  0  0
  -11.8664   11.6001  -26.9299 C   0  0  0  0  0  0  0  0  0  0  0  0
  -11.2416   10.5047  -27.3882 N   0  0  0  0  0  0  0  0  0  0  0  0
  -10.9867    9.7172  -26.3337 C   0  0  0  0  0  0  0  0  0  0  0  0
  -11.4651   10.3422  -25.2032 C   0  0  0  0  0  0  0  0  0  0  0  0
  -11.3039    9.7054  -24.0299 N   0  0  0  0  0  0  0  0  0  0  0  0
  -10.6959    8.5058  -23.9893 C   0  0  0  0  0  0  0  0  0  0  0  0
  -10.2284    7.8961  -25.0980 N   0  0  0  0  0  0  0  0  0  0  0  0
  -10.3636    8.4919  -26.3066 C   0  0  0  0  0  0  0  0  0  0  0  0
   -9.8915    7.8970  -27.5019 N   0  0  0  0  0  0  0  0  0  0  0  0
  -11.2498   13.9901  -26.1140 O   0  0  0  0  0  0  0  0  0  0  0  0
  -13.2435   15.8159  -24.2252 O   0  0  0  0  0  0  0  0  0  0  0  0
  -12.8417   13.4600  -20.9659 H   0  0  0  0  0  0  0  0  0  0  0  0
  -12.7205   15.1612  -21.4822 H   0  0  0  0  0  0  0  0  0  0  0  0
  -13.8335   13.5511  -23.1409 H   0  0  0  0  0  0  0  0  0  0  0  0
  -11.3514   15.1666  -23.9617 H   0  0  0  0  0  0  0  0  0  0  0  0
  -13.2785   14.1883  -26.0183 H   0  0  0  0  0  0  0  0  0  0  0  0
  -13.7266   12.3687  -24.6892 H   0  0  0  0  0  0  0  0  0  0  0  0
  -12.1836   12.4028  -27.5953 H   0  0  0  0  0  0  0  0  0  0  0  0
  -10.5508    7.9661  -23.0557 H   0  0  0  0  0  0  0  0  0  0  0  0
  -10.2263    6.9844  -27.8815 H   0  0  0  0  0  0  0  0  0  0  0  0
   -9.1583    8.4026  -28.0437 H   0  0  0  0  0  0  0  0  0  0  0  0
  -10.5053   13.6409  -25.5748 H   0  0  0  0  0  0  0  0  0  0  0  0
  -14.1653   15.5665  -23.9987 H   0  0  0  0  0  0  0  0  0  0  0  0
  1  2  1  0
  2  3  1  0
  3  4  1  0
  4  5  1  0
  5  6  1  0
  5  7  1  0
  7  8  1  0
  8  9  2  0
  9 10  1  0
 10 11  2  0
 11 12  1  0
 12 13  2  0
 13 14  1  0
 14 15  2  0
 15 16  1  0
  4 17  1  0
  3 18  1  0
  6  2  1  0
 11  7  1  0
 15 10  1  0
  1 19  1  0
  1 20  1  0
  2 21  1  0
  3 22  1  0
  4 23  1  0
  5 24  1  0
  8 25  1  0
 13 26  1  0
 16 27  1  0
 16 28  1  0
 17 29  1  0
 18 30  1  0
M  RAD  1   1   2
M  END
$$$$

     RDKit          3D

 30 32  0  0  0  0  0  0  0  0999 V2000
  -14.2248   14.3867  -24.8814 C   0  0  0  0  0  3  0  0  0  0  0  0
  -13.4663   14.0875  -23.5823 C   0  0  0  0  0  0  0  0  0  0  0  0
  -12.1033   14.7247  -23.7386 C   0  0  0  0  0  0  0  0  0  0  0  0
  -11.3757   13.6192  -24.5116 C   0  0  0  0  0  0  0  0  0  0  0  0
  -12.0389   12.3998  -23.9407 C   0  0  0  0  0  0  0  0  0  0  0  0
  -13.2943   12.7344  -23.5183 O   0  0  0  0  0  0  0  0  0  0  0  0
  -12.0303   11.3095  -24.9017 N   0  0  0  0  0  0  0  0  0  0  0  0
  -13.0390   11.0080  -25.7394 C   0  0  0  0  0  0  0  0  0  0  0  0
  -12.6996    9.9309  -26.5016 N   0  0  0  0  0  0  0  0  0  0  0  0
  -11.4801    9.5413  -26.1568 C   0  0  0  0  0  0  0  0  0  0  0  0
  -11.0600   10.4048  -25.1541 C   0  0  0  0  0  0  0  0  0  0  0  0
   -9.8485   10.2297  -24.6239 N   0  0  0  0  0  0  0  0  0  0  0  0
   -9.0633    9.2297  -25.0655 C   0  0  0  0  0  0  0  0  0  0  0  0
   -9.4711    8.3763  -26.0522 N   0  0  0  0  0  0  0  0  0  0  0  0
  -10.6827    8.5152  -26.6147 C   0  0  0  0  0  0  0  0  0  0  0  0
  -11.0526    7.6014  -27.6334 N   0  0  0  0  0  0  0  0  0  0  0  0
  -10.0212   13.6128  -24.1778 O   0  0  0  0  0  0  0  0  0  0  0  0
  -12.1753   15.8962  -24.4620 O   0  0  0  0  0  0  0  0  0  0  0  0
  -14.2075   15.5025  -24.9751 H   0  0  0  0  0  0  0  0  0  0  0  0
  -13.6080   13.9169  -25.6904 H   0  0  0  0  0  0  0  0  0  0  0  0
  -13.9814   14.5266  -22.7067 H   0  0  0  0  0  0  0  0  0  0  0  0
  -11.6519   14.8397  -22.7450 H   0  0  0  0  0  0  0  0  0  0  0  0
  -11.5148   13.7286  -25.5936 H   0  0  0  0  0  0  0  0  0  0  0  0
  -11.4456   12.1214  -23.0207 H   0  0  0  0  0  0  0  0  0  0  0  0
  -13.9962   11.5347  -25.8144 H   0  0  0  0  0  0  0  0  0  0  0  0
   -8.0632    9.0610  -24.6491 H   0  0  0  0  0  0  0  0  0  0  0  0
  -11.6232    6.7384  -27.3859 H   0  0  0  0  0  0  0  0  0  0  0  0
  -10.8078    7.7046  -28.6282 H   0  0  0  0  0  0  0  0  0  0  0  0
   -9.8892   13.8290  -23.2159 H   0  0  0  0  0  0  0  0  0  0  0  0
  -12.1241   16.6449  -23.7973 H   0  0  0  0  0  0  0  0  0  0  0  0
  1  2  1  0
  2  3  1  0
  3  4  1  0
  4  5  1  0
  5  6  1  0
  5  7  1  0
  7  8  1  0
  8  9  2  0
  9 10  1  0
 10 11  2  0
 11 12  1  0
 12 13  2  0
 13 14  1  0
 14 15  2  0
 15 16  1  0
  4 17  1  0
  3 18  1  0
  6  2  1  0
 11  7  1  0
 15 10  1  0
  1 19  1  0
  1 20  1  0
  2 21  1  0
  3 22  1  0
  4 23  1  0
  5 24  1  0
  8 25  1  0
 13 26  1  0
 16 27  1  0
 16 28  1  0
 17 29  1  0
 18 30  1  0
M  RAD  1   1   2
M  END
$$$$

     RDKit          3D

 30 32  0  0  0  0  0  0  0  0999 V2000
  -14.3872   14.0503  -22.6757 C   0  0  0  0  0  3  0  0  0  0  0  0
  -13.4746   13.6895  -23.8341 C   0  0  0  0  0  0  0  0  0  0  0  0
  -12.4130   14.7521  -24.0450 C   0  0  0  0  0  0  0  0  0  0  0  0
  -11.4237   13.9424  -24.8932 C   0  0  0  0  0  0  0  0  0  0  0  0
  -11.5754   12.5855  -24.2575 C   0  0  0  0  0  0  0  0  0  0  0  0
  -12.7463   12.5669  -23.5520 O   0  0  0  0  0  0  0  0  0  0  0  0
  -11.6164   11.5220  -25.2491 N   0  0  0  0  0  0  0  0  0  0  0  0
  -12.2918   11.5758  -26.4041 C   0  0  0  0  0  0  0  0  0  0  0  0
  -12.0954   10.4175  -27.0553 N   0  0  0  0  0  0  0  0  0  0  0  0
  -11.2968    9.6417  -26.3048 C   0  0  0  0  0  0  0  0  0  0  0  0
  -10.9871   10.3362  -25.1539 C   0  0  0  0  0  0  0  0  0  0  0  0
  -10.1845    9.8056  -24.1845 N   0  0  0  0  0  0  0  0  0  0  0  0
   -9.7098    8.5718  -24.4059 C   0  0  0  0  0  0  0  0  0  0  0  0
  -10.0052    7.8922  -25.5185 N   0  0  0  0  0  0  0  0  0  0  0  0
  -10.7889    8.3646  -26.5045 C   0  0  0  0  0  0  0  0  0  0  0  0
  -11.0770    7.6106  -27.6683 N   0  0  0  0  0  0  0  0  0  0  0  0
  -10.1497   14.4402  -24.8281 O   0  0  0  0  0  0  0  0  0  0  0  0
  -12.9042   15.8432  -24.7214 O   0  0  0  0  0  0  0  0  0  0  0  0
  -15.2583   13.3371  -22.7524 H   0  0  0  0  0  0  0  0  0  0  0  0
  -13.8964   13.8031  -21.6937 H   0  0  0  0  0  0  0  0  0  0  0  0
  -14.0842   13.6322  -24.7552 H   0  0  0  0  0  0  0  0  0  0  0  0
  -11.8838   15.0121  -23.1095 H   0  0  0  0  0  0  0  0  0  0  0  0
  -11.7863   13.9452  -25.9446 H   0  0  0  0  0  0  0  0  0  0  0  0
  -10.6867   12.4124  -23.5999 H   0  0  0  0  0  0  0  0  0  0  0  0
  -12.8991   12.4311  -26.7458 H   0  0  0  0  0  0  0  0  0  0  0  0
   -9.0644    8.1562  -23.6167 H   0  0  0  0  0  0  0  0  0  0  0  0
  -11.6045    6.7249  -27.6894 H   0  0  0  0  0  0  0  0  0  0  0  0
  -10.7256    7.9820  -28.5865 H   0  0  0  0  0  0  0  0  0  0  0  0
   -9.6610   14.2459  -25.6796 H   0  0  0  0  0  0  0  0  0  0  0  0
  -12.2468   16.2373  -25.3383 H   0  0  0  0  0  0  0  0  0  0  0  0
  1  2  1  0
  2  3  1  0
  3  4  1  0
  4  5  1  0
  5  6  1  0
  5  7  1  0
  7  8  1  0
  8  9  2  0
  9 10  1  0
 10 11  2  0
 11 12  1  0
 12 13  2  0
 13 14  1  0
 14 15  2  0
 15 16  1  0
  4 17  1  0
  3 18  1  0
  6  2  1  0
 11  7  1  0
 15 10  1  0
  1 19  1  0
  1 20  1  0
  2 21  1  0
  3 22  1  0
  4 23  1  0
  5 24  1  0
  8 25  1  0
 13 26  1  0
 16 27  1  0
 16 28  1  0
 17 29  1  0
 18 30  1  0
M  RAD  1   1   2
M  END
$$$$

     RDKit          3D

 30 32  0  0  0  0  0  0  0  0999 V2000
  -13.0608   15.6289  -25.6299 C   0  0  0  0  0  3  0  0  0  0  0  0
  -12.9162   14.1740  -25.2283 C   0  0  0  0  0  0  0  0  0  0  0  0
  -13.2256   14.0526  -23.7519 C   0  0  0  0  0  0  0  0  0  0  0  0
  -12.3755   12.9153  -23.2821 C   0  0  0  0  0  0  0  0  0  0  0  0
  -11.4413   12.6963  -24.4466 C   0  0  0  0  0  0  0  0  0  0  0  0
  -11.6172   13.7392  -25.3287 O   0  0  0  0  0  0  0  0  0  0  0  0
  -11.7466   11.4017  -25.0119 N   0  0  0  0  0  0  0  0  0  0  0  0
  -12.9906   10.9259  -25.1887 C   0  0  0  0  0  0  0  0  0  0  0  0
  -12.8438    9.7058  -25.7335 N   0  0  0  0  0  0  0  0  0  0  0  0
  -11.5376    9.4284  -25.8921 C   0  0  0  0  0  0  0  0  0  0  0  0
  -10.8147   10.5144  -25.4306 C   0  0  0  0  0  0  0  0  0  0  0  0
   -9.4652   10.5188  -25.4656 N   0  0  0  0  0  0  0  0  0  0  0  0
   -8.7962    9.4614  -25.9525 C   0  0  0  0  0  0  0  0  0  0  0  0
   -9.4958    8.4079  -26.4002 N   0  0  0  0  0  0  0  0  0  0  0  0
  -10.8179    8.3648  -26.3832 C   0  0  0  0  0  0  0  0  0  0  0  0
  -11.5767    7.2465  -26.8580 N   0  0  0  0  0  0  0  0  0  0  0  0
  -11.6396   13.2134  -22.1460 O   0  0  0  0  0  0  0  0  0  0  0  0
  -12.7658   15.2128  -23.1260 O   0  0  0  0  0  0  0  0  0  0  0  0
  -13.5289   16.2336  -24.8210 H   0  0  0  0  0  0  0  0  0  0  0  0
  -13.7052   15.7584  -26.5264 H   0  0  0  0  0  0  0  0  0  0  0  0
  -13.6341   13.6042  -25.8614 H   0  0  0  0  0  0  0  0  0  0  0  0
  -14.3050   13.8836  -23.5636 H   0  0  0  0  0  0  0  0  0  0  0  0
  -12.9761   12.0020  -23.0403 H   0  0  0  0  0  0  0  0  0  0  0  0
  -10.3890   12.7304  -24.0955 H   0  0  0  0  0  0  0  0  0  0  0  0
  -13.9415   11.4051  -24.9504 H   0  0  0  0  0  0  0  0  0  0  0  0
   -7.7235    9.4576  -25.9836 H   0  0  0  0  0  0  0  0  0  0  0  0
  -12.5037    7.0282  -26.4681 H   0  0  0  0  0  0  0  0  0  0  0  0
  -11.1572    6.6776  -27.5986 H   0  0  0  0  0  0  0  0  0  0  0  0
  -11.4196   14.1767  -22.0840 H   0  0  0  0  0  0  0  0  0  0  0  0
  -11.9648   15.5050  -23.6318 H   0  0  0  0  0  0  0  0  0  0  0  0
  1  2  1  0
  2  3  1  0
  3  4  1  0
  4  5  1  0
  5  6  1  0
  5  7  1  0
  7  8  1  0
  8  9  2  0
  9 10  1  0
 10 11  2  0
 11 12  1  0
 12 13  2  0
 13 14  1  0
 14 15  2  0
 15 16  1  0
  4 17  1  0
  3 18  1  0
  6  2  1  0
 11  7  1  0
 15 10  1  0
  1 19  1  0
  1 20  1  0
  2 21  1  0
  3 22  1  0
  4 23  1  0
  5 24  1  0
  8 25  1  0
 13 26  1  0
 16 27  1  0
 16 28  1  0
 17 29  1  0
 18 30  1  0
M  RAD  1   1   2
M  END
$$$$

     RDKit          3D

 30 32  0  0  0  0  0  0  0  0999 V2000
  -13.5962   14.3919  -22.1387 C   0  0  0  0  0  3  0  0  0  0  0  0
  -13.5402   14.0188  -23.6033 C   0  0  0  0  0  0  0  0  0  0  0  0
  -12.4238   14.7372  -24.3342 C   0  0  0  0  0  0  0  0  0  0  0  0
  -11.3072   13.7566  -24.2262 C   0  0  0  0  0  0  0  0  0  0  0  0
  -11.9851   12.4555  -23.9804 C   0  0  0  0  0  0  0  0  0  0  0  0
  -13.3281   12.6813  -23.8110 O   0  0  0  0  0  0  0  0  0  0  0  0
  -11.8173   11.5168  -25.0907 N   0  0  0  0  0  0  0  0  0  0  0  0
  -12.3559   11.6661  -26.3129 C   0  0  0  0  0  0  0  0  0  0  0  0
  -11.9597   10.5938  -27.0223 N   0  0  0  0  0  0  0  0  0  0  0  0
  -11.1901    9.7804  -26.2789 C   0  0  0  0  0  0  0  0  0  0  0  0
  -11.1027   10.3785  -25.0407 C   0  0  0  0  0  0  0  0  0  0  0  0
  -10.3733    9.7479  -24.1016 N   0  0  0  0  0  0  0  0  0  0  0  0
   -9.7518    8.5679  -24.3753 C   0  0  0  0  0  0  0  0  0  0  0  0
   -9.8379    7.9845  -25.5856 N   0  0  0  0  0  0  0  0  0  0  0  0
  -10.5498    8.5695  -26.5532 C   0  0  0  0  0  0  0  0  0  0  0  0
  -10.6982    8.0333  -27.8546 N   0  0  0  0  0  0  0  0  0  0  0  0
  -10.4597   13.7473  -25.3213 O   0  0  0  0  0  0  0  0  0  0  0  0
  -12.8499   14.9806  -25.6251 O   0  0  0  0  0  0  0  0  0  0  0  0
  -13.5885   15.4804  -22.0262 H   0  0  0  0  0  0  0  0  0  0  0  0
  -14.6035   14.0439  -21.7676 H   0  0  0  0  0  0  0  0  0  0  0  0
  -14.5356   14.2741  -24.0388 H   0  0  0  0  0  0  0  0  0  0  0  0
  -12.1916   15.6658  -23.7729 H   0  0  0  0  0  0  0  0  0  0  0  0
  -10.6735   14.0551  -23.3423 H   0  0  0  0  0  0  0  0  0  0  0  0
  -11.5966   12.0070  -23.0426 H   0  0  0  0  0  0  0  0  0  0  0  0
  -12.9839   12.4562  -26.7084 H   0  0  0  0  0  0  0  0  0  0  0  0
   -9.1883    8.1338  -23.5611 H   0  0  0  0  0  0  0  0  0  0  0  0
  -10.9260    7.0148  -28.0337 H   0  0  0  0  0  0  0  0  0  0  0  0
  -10.5910    8.6142  -28.7239 H   0  0  0  0  0  0  0  0  0  0  0  0
  -10.3356   14.6387  -25.7284 H   0  0  0  0  0  0  0  0  0  0  0  0
  -12.2357   15.5311  -26.1609 H   0  0  0  0  0  0  0  0  0  0  0  0
  1  2  1  0
  2  3  1  0
  3  4  1  0
  4  5  1  0
  5  6  1  0
  5  7  1  0
  7  8  1  0
  8  9  2  0
  9 10  1  0
 10 11  2  0
 11 12  1  0
 12 13  2  0
 13 14  1  0
 14 15  2  0
 15 16  1  0
  4 17  1  0
  3 18  1  0
  6  2  1  0
 11  7  1  0
 15 10  1  0
  1 19  1  0
  1 20  1  0
  2 21  1  0
  3 22  1  0
  4 23  1  0
  5 24  1  0
  8 25  1  0
 13 26  1  0
 16 27  1  0
 16 28  1  0
 17 29  1  0
 18 30  1  0
M  RAD  1   1   2
M  END
$$$$

     RDKit          3D

 30 32  0  0  0  0  0  0  0  0999 V2000
  -14.1929   14.6179  -22.9842 C   0  0  0  0  0  3  0  0  0  0  0  0
  -13.2721   14.4759  -24.1370 C   0  0  0  0  0  0  0  0  0  0  0  0
  -11.8291   14.6625  -23.8316 C   0  0  0  0  0  0  0  0  0  0  0  0
  -11.2139   13.4933  -24.6178 C   0  0  0  0  0  0  0  0  0  0  0  0
  -12.3399   12.4700  -24.4182 C   0  0  0  0  0  0  0  0  0  0  0  0
  -13.4512   13.2425  -24.7226 O   0  0  0  0  0  0  0  0  0  0  0  0
  -12.2009   11.3473  -25.2988 N   0  0  0  0  0  0  0  0  0  0  0  0
  -12.9943   10.9740  -26.3152 C   0  0  0  0  0  0  0  0  0  0  0  0
  -12.5014    9.8595  -26.8835 N   0  0  0  0  0  0  0  0  0  0  0  0
  -11.3831    9.5181  -26.2239 C   0  0  0  0  0  0  0  0  0  0  0  0
  -11.2002   10.4554  -25.2311 C   0  0  0  0  0  0  0  0  0  0  0  0
  -10.1250   10.3349  -24.4118 N   0  0  0  0  0  0  0  0  0  0  0  0
   -9.2566    9.3415  -24.5486 C   0  0  0  0  0  0  0  0  0  0  0  0
   -9.4202    8.4269  -25.5045 N   0  0  0  0  0  0  0  0  0  0  0  0
  -10.4666    8.5073  -26.3347 C   0  0  0  0  0  0  0  0  0  0  0  0
  -10.6496    7.5349  -27.3589 N   0  0  0  0  0  0  0  0  0  0  0  0
  -11.1341   13.9073  -25.9329 O   0  0  0  0  0  0  0  0  0  0  0  0
  -11.4959   14.4388  -22.5007 O   0  0  0  0  0  0  0  0  0  0  0  0
  -14.3171   15.6208  -22.5833 H   0  0  0  0  0  0  0  0  0  0  0  0
  -14.2118   13.7989  -22.2724 H   0  0  0  0  0  0  0  0  0  0  0  0
  -13.5571   15.2525  -24.8990 H   0  0  0  0  0  0  0  0  0  0  0  0
  -11.4016   15.6176  -24.1362 H   0  0  0  0  0  0  0  0  0  0  0  0
  -10.2692   13.1588  -24.1828 H   0  0  0  0  0  0  0  0  0  0  0  0
  -12.2837   12.1701  -23.3593 H   0  0  0  0  0  0  0  0  0  0  0  0
  -13.8921   11.4884  -26.6307 H   0  0  0  0  0  0  0  0  0  0  0  0
   -8.4071    9.2644  -23.8851 H   0  0  0  0  0  0  0  0  0  0  0  0
  -10.3393    6.5538  -27.2516 H   0  0  0  0  0  0  0  0  0  0  0  0
  -11.1121    7.8230  -28.2467 H   0  0  0  0  0  0  0  0  0  0  0  0
  -11.9964   13.6838  -26.3695 H   0  0  0  0  0  0  0  0  0  0  0  0
  -12.2799   14.3440  -21.9091 H   0  0  0  0  0  0  0  0  0  0  0  0
  1  2  1  0
  2  3  1  0
  3  4  1  0
  4  5  1  0
  5  6  1  0
  5  7  1  0
  7  8  1  0
  8  9  2  0
  9 10  1  0
 10 11  2  0
 11 12  1  0
 12 13  2  0
 13 14  1  0
 14 15  2  0
 15 16  1  0
  4 17  1  0
  3 18  1  0
  6  2  1  0
 11  7  1  0
 15 10  1  0
  1 19  1  0
  1 20  1  0
  2 21  1  0
  3 22  1  0
  4 23  1  0
  5 24  1  0
  8 25  1  0
 13 26  1  0
 16 27  1  0
 16 28  1  0
 17 29  1  0
 18 30  1  0
M  RAD  1   1   2
M  END
$$$$

     RDKit          3D

 30 32  0  0  0  0  0  0  0  0999 V2000
  -12.7024   14.3852  -26.2792 C   0  0  0  0  0  3  0  0  0  0  0  0
  -11.8869   14.5872  -25.0490 C   0  0  0  0  0  0  0  0  0  0  0  0
  -12.6595   14.5878  -23.7750 C   0  0  0  0  0  0  0  0  0  0  0  0
  -12.4390   13.1882  -23.2486 C   0  0  0  0  0  0  0  0  0  0  0  0
  -11.3585   12.6315  -24.1050 C   0  0  0  0  0  0  0  0  0  0  0  0
  -10.8926   13.6273  -24.9393 O   0  0  0  0  0  0  0  0  0  0  0  0
  -11.7793   11.4568  -24.8600 N   0  0  0  0  0  0  0  0  0  0  0  0
  -12.9869   11.0966  -25.2729 C   0  0  0  0  0  0  0  0  0  0  0  0
  -12.9200    9.9321  -25.9400 N   0  0  0  0  0  0  0  0  0  0  0  0
  -11.6327    9.5346  -25.9552 C   0  0  0  0  0  0  0  0  0  0  0  0
  -10.9217   10.5000  -25.2733 C   0  0  0  0  0  0  0  0  0  0  0  0
   -9.5711   10.3793  -25.1165 N   0  0  0  0  0  0  0  0  0  0  0  0
   -8.9767    9.3077  -25.6409 C   0  0  0  0  0  0  0  0  0  0  0  0
   -9.6534    8.3591  -26.3072 N   0  0  0  0  0  0  0  0  0  0  0  0
  -10.9818    8.4293  -26.4896 C   0  0  0  0  0  0  0  0  0  0  0  0
  -11.7208    7.4405  -27.1899 N   0  0  0  0  0  0  0  0  0  0  0  0
  -12.0473   13.2922  -21.9080 O   0  0  0  0  0  0  0  0  0  0  0  0
  -13.9963   14.8725  -23.9064 O   0  0  0  0  0  0  0  0  0  0  0  0
  -12.7518   15.2324  -26.9607 H   0  0  0  0  0  0  0  0  0  0  0  0
  -13.6162   13.8074  -26.1533 H   0  0  0  0  0  0  0  0  0  0  0  0
  -11.3700   15.5838  -25.1458 H   0  0  0  0  0  0  0  0  0  0  0  0
  -12.2293   15.3440  -23.0700 H   0  0  0  0  0  0  0  0  0  0  0  0
  -13.3684   12.5792  -23.2463 H   0  0  0  0  0  0  0  0  0  0  0  0
  -10.5168   12.3253  -23.4499 H   0  0  0  0  0  0  0  0  0  0  0  0
  -13.9034   11.6549  -25.1017 H   0  0  0  0  0  0  0  0  0  0  0  0
   -7.8931    9.2440  -25.4958 H   0  0  0  0  0  0  0  0  0  0  0  0
  -12.5370    7.6252  -27.7943 H   0  0  0  0  0  0  0  0  0  0  0  0
  -11.4021    6.4526  -27.0753 H   0  0  0  0  0  0  0  0  0  0  0  0
  -11.2882   13.9271  -21.8062 H   0  0  0  0  0  0  0  0  0  0  0  0
  -14.2096   15.2150  -24.8012 H   0  0  0  0  0  0  0  0  0  0  0  0
  1  2  1  0
  2  3  1  0
  3  4  1  0
  4  5  1  0
  5  6  1  0
  5  7  1  0
  7  8  1  0
  8  9  2  0
  9 10  1  0
 10 11  2  0
 11 12  1  0
 12 13  2  0
 13 14  1  0
 14 15  2  0
 15 16  1  0
  4 17  1  0
  3 18  1  0
  6  2  1  0
 11  7  1  0
 15 10  1  0
  1 19  1  0
  1 20  1  0
  2 21  1  0
  3 22  1  0
  4 23  1  0
  5 24  1  0
  8 25  1  0
 13 26  1  0
 16 27  1  0
 16 28  1  0
 17 29  1  0
 18 30  1  0
M  RAD  1   1   2
M  END
$$$$

     RDKit          3D

 30 32  0  0  0  0  0  0  0  0999 V2000
  -14.3648   14.7141  -23.2250 C   0  0  0  0  0  3  0  0  0  0  0  0
  -13.2890   14.3843  -24.2418 C   0  0  0  0  0  0  0  0  0  0  0  0
  -11.9505   14.4040  -23.5449 C   0  0  0  0  0  0  0  0  0  0  0  0
  -11.1706   13.3383  -24.3249 C   0  0  0  0  0  0  0  0  0  0  0  0
  -12.1436   12.9388  -25.3669 C   0  0  0  0  0  0  0  0  0  0  0  0
  -13.3783   13.0837  -24.6929 O   0  0  0  0  0  0  0  0  0  0  0  0
  -12.0534   11.5666  -25.7873 N   0  0  0  0  0  0  0  0  0  0  0  0
  -13.0131   10.9804  -26.5405 C   0  0  0  0  0  0  0  0  0  0  0  0
  -12.6491    9.7087  -26.7690 N   0  0  0  0  0  0  0  0  0  0  0  0
  -11.4745    9.4454  -26.1847 C   0  0  0  0  0  0  0  0  0  0  0  0
  -11.1053   10.6387  -25.5619 C   0  0  0  0  0  0  0  0  0  0  0  0
   -9.9724   10.7304  -24.8795 N   0  0  0  0  0  0  0  0  0  0  0  0
   -9.1695    9.6536  -24.7888 C   0  0  0  0  0  0  0  0  0  0  0  0
   -9.5066    8.4830  -25.3853 N   0  0  0  0  0  0  0  0  0  0  0  0
  -10.6442    8.3473  -26.0856 C   0  0  0  0  0  0  0  0  0  0  0  0
  -11.0410    7.1556  -26.7237 N   0  0  0  0  0  0  0  0  0  0  0  0
  -10.0802   13.9794  -24.9275 O   0  0  0  0  0  0  0  0  0  0  0  0
  -12.1209   14.0556  -22.2257 O   0  0  0  0  0  0  0  0  0  0  0  0
  -15.3207   14.2286  -23.4265 H   0  0  0  0  0  0  0  0  0  0  0  0
  -14.5356   15.8088  -23.1952 H   0  0  0  0  0  0  0  0  0  0  0  0
  -13.3416   15.0900  -25.0884 H   0  0  0  0  0  0  0  0  0  0  0  0
  -11.4828   15.4051  -23.6639 H   0  0  0  0  0  0  0  0  0  0  0  0
  -10.8500   12.5590  -23.6345 H   0  0  0  0  0  0  0  0  0  0  0  0
  -12.0869   13.6632  -26.2072 H   0  0  0  0  0  0  0  0  0  0  0  0
  -13.9329   11.4428  -26.9098 H   0  0  0  0  0  0  0  0  0  0  0  0
   -8.2298    9.6559  -24.2481 H   0  0  0  0  0  0  0  0  0  0  0  0
  -11.5364    6.3940  -26.2089 H   0  0  0  0  0  0  0  0  0  0  0  0
  -10.8616    6.9739  -27.7359 H   0  0  0  0  0  0  0  0  0  0  0  0
  -10.3301   14.8813  -25.2588 H   0  0  0  0  0  0  0  0  0  0  0  0
  -11.7155   13.1695  -22.0293 H   0  0  0  0  0  0  0  0  0  0  0  0
  1  2  1  0
  2  3  1  0
  3  4  1  0
  4  5  1  0
  5  6  1  0
  5  7  1  0
  7  8  1  0
  8  9  2  0
  9 10  1  0
 10 11  2  0
 11 12  1  0
 12 13  2  0
 13 14  1  0
 14 15  2  0
 15 16  1  0
  4 17  1  0
  3 18  1  0
  6  2  1  0
 11  7  1  0
 15 10  1  0
  1 19  1  0
  1 20  1  0
  2 21  1  0
  3 22  1  0
  4 23  1  0
  5 24  1  0
  8 25  1  0
 13 26  1  0
 16 27  1  0
 16 28  1  0
 17 29  1  0
 18 30  1  0
M  RAD  1   1   2
M  END
$$$$

     RDKit          3D

 30 32  0  0  0  0  0  0  0  0999 V2000
  -12.7805   15.7018  -25.5153 C   0  0  0  0  0  3  0  0  0  0  0  0
  -12.8079   14.2139  -25.2218 C   0  0  0  0  0  0  0  0  0  0  0  0
  -13.2995   13.9097  -23.8452 C   0  0  0  0  0  0  0  0  0  0  0  0
  -12.3096   12.9433  -23.2677 C   0  0  0  0  0  0  0  0  0  0  0  0
  -11.3768   12.6907  -24.4229 C   0  0  0  0  0  0  0  0  0  0  0  0
  -11.5157   13.7499  -25.3006 O   0  0  0  0  0  0  0  0  0  0  0  0
  -11.7150   11.4272  -25.0416 N   0  0  0  0  0  0  0  0  0  0  0  0
  -12.9530   11.0037  -25.3487 C   0  0  0  0  0  0  0  0  0  0  0  0
  -12.8400    9.7790  -25.9092 N   0  0  0  0  0  0  0  0  0  0  0  0
  -11.5474    9.4435  -25.9507 C   0  0  0  0  0  0  0  0  0  0  0  0
  -10.8173   10.4789  -25.4036 C   0  0  0  0  0  0  0  0  0  0  0  0
   -9.4608   10.4244  -25.3085 N   0  0  0  0  0  0  0  0  0  0  0  0
   -8.8138    9.3343  -25.7589 C   0  0  0  0  0  0  0  0  0  0  0  0
   -9.5399    8.3342  -26.2892 N   0  0  0  0  0  0  0  0  0  0  0  0
  -10.8618    8.3388  -26.4045 C   0  0  0  0  0  0  0  0  0  0  0  0
  -11.6258    7.2798  -26.9656 N   0  0  0  0  0  0  0  0  0  0  0  0
  -11.5854   13.4857  -22.2265 O   0  0  0  0  0  0  0  0  0  0  0  0
  -13.2768   15.0693  -23.0754 O   0  0  0  0  0  0  0  0  0  0  0  0
  -13.2477   15.9531  -26.4867 H   0  0  0  0  0  0  0  0  0  0  0  0
  -13.2649   16.2898  -24.7117 H   0  0  0  0  0  0  0  0  0  0  0  0
  -13.4766   13.7613  -26.0101 H   0  0  0  0  0  0  0  0  0  0  0  0
  -14.3399   13.4832  -23.8317 H   0  0  0  0  0  0  0  0  0  0  0  0
  -12.7729   12.0066  -22.9066 H   0  0  0  0  0  0  0  0  0  0  0  0
  -10.3302   12.6643  -24.0584 H   0  0  0  0  0  0  0  0  0  0  0  0
  -13.8903   11.5485  -25.1782 H   0  0  0  0  0  0  0  0  0  0  0  0
   -7.7198    9.2360  -25.7075 H   0  0  0  0  0  0  0  0  0  0  0  0
  -11.8560    7.3458  -27.9810 H   0  0  0  0  0  0  0  0  0  0  0  0
  -11.9643    6.4541  -26.4309 H   0  0  0  0  0  0  0  0  0  0  0  0
  -10.6678   13.1673  -22.2869 H   0  0  0  0  0  0  0  0  0  0  0  0
  -12.3299   15.4086  -23.1099 H   0  0  0  0  0  0  0  0  0  0  0  0
  1  2  1  0
  2  3  1  0
  3  4  1  0
  4  5  1  0
  5  6  1  0
  5  7  1  0
  7  8  1  0
  8  9  2  0
  9 10  1  0
 10 11  2  0
 11 12  1  0
 12 13  2  0
 13 14  1  0
 14 15  2  0
 15 16  1  0
  4 17  1  0
  3 18  1  0
  6  2  1  0
 11  7  1  0
 15 10  1  0
  1 19  1  0
  1 20  1  0
  2 21  1  0
  3 22  1  0
  4 23  1  0
  5 24  1  0
  8 25  1  0
 13 26  1  0
 16 27  1  0
 16 28  1  0
 17 29  1  0
 18 30  1  0
M  RAD  1   1   2
M  END
$$$$

     RDKit          3D

 30 32  0  0  0  0  0  0  0  0999 V2000
  -13.5661   14.5716  -25.8334 C   0  0  0  0  0  3  0  0  0  0  0  0
  -13.4106   14.3779  -24.3282 C   0  0  0  0  0  0  0  0  0  0  0  0
  -11.9735   14.7226  -23.9891 C   0  0  0  0  0  0  0  0  0  0  0  0
  -11.3018   13.4508  -24.5330 C   0  0  0  0  0  0  0  0  0  0  0  0
  -12.3233   12.4394  -24.0622 C   0  0  0  0  0  0  0  0  0  0  0  0
  -13.5517   13.0352  -24.0732 O   0  0  0  0  0  0  0  0  0  0  0  0
  -12.2751   11.2221  -24.8290 N   0  0  0  0  0  0  0  0  0  0  0  0
  -13.3404   10.5321  -25.2646 C   0  0  0  0  0  0  0  0  0  0  0  0
  -12.9158    9.4423  -25.9508 N   0  0  0  0  0  0  0  0  0  0  0  0
  -11.5705    9.4278  -25.9588 C   0  0  0  0  0  0  0  0  0  0  0  0
  -11.1955   10.5537  -25.2492 C   0  0  0  0  0  0  0  0  0  0  0  0
   -9.9015   10.8304  -25.0738 N   0  0  0  0  0  0  0  0  0  0  0  0
   -8.9653   10.0065  -25.5921 C   0  0  0  0  0  0  0  0  0  0  0  0
   -9.3307    8.9121  -26.2819 N   0  0  0  0  0  0  0  0  0  0  0  0
  -10.6254    8.5762  -26.4945 C   0  0  0  0  0  0  0  0  0  0  0  0
  -11.0024    7.4231  -27.2212 N   0  0  0  0  0  0  0  0  0  0  0  0
  -10.0914   13.3397  -23.8954 O   0  0  0  0  0  0  0  0  0  0  0  0
  -11.7858   14.7444  -22.6257 O   0  0  0  0  0  0  0  0  0  0  0  0
  -13.2538   13.6653  -26.3864 H   0  0  0  0  0  0  0  0  0  0  0  0
  -13.1345   15.5031  -26.1899 H   0  0  0  0  0  0  0  0  0  0  0  0
  -14.1281   15.0068  -23.7625 H   0  0  0  0  0  0  0  0  0  0  0  0
  -11.6194   15.6150  -24.5100 H   0  0  0  0  0  0  0  0  0  0  0  0
  -11.2480   13.5352  -25.6218 H   0  0  0  0  0  0  0  0  0  0  0  0
  -12.0662   12.2319  -22.9815 H   0  0  0  0  0  0  0  0  0  0  0  0
  -14.3964   10.7365  -25.1367 H   0  0  0  0  0  0  0  0  0  0  0  0
   -7.8935   10.2219  -25.4555 H   0  0  0  0  0  0  0  0  0  0  0  0
  -11.2385    6.5081  -26.7639 H   0  0  0  0  0  0  0  0  0  0  0  0
  -11.0573    7.4519  -28.2549 H   0  0  0  0  0  0  0  0  0  0  0  0
   -9.6544   14.2437  -23.9404 H   0  0  0  0  0  0  0  0  0  0  0  0
  -12.5024   14.3201  -22.1029 H   0  0  0  0  0  0  0  0  0  0  0  0
  1  2  1  0
  2  3  1  0
  3  4  1  0
  4  5  1  0
  5  6  1  0
  5  7  1  0
  7  8  1  0
  8  9  2  0
  9 10  1  0
 10 11  2  0
 11 12  1  0
 12 13  2  0
 13 14  1  0
 14 15  2  0
 15 16  1  0
  4 17  1  0
  3 18  1  0
  6  2  1  0
 11  7  1  0
 15 10  1  0
  1 19  1  0
  1 20  1  0
  2 21  1  0
  3 22  1  0
  4 23  1  0
  5 24  1  0
  8 25  1  0
 13 26  1  0
 16 27  1  0
 16 28  1  0
 17 29  1  0
 18 30  1  0
M  RAD  1   1   2
M  END
$$$$

     RDKit          3D

 30 32  0  0  0  0  0  0  0  0999 V2000
  -14.2777   15.3261  -24.1553 C   0  0  0  0  0  3  0  0  0  0  0  0
  -13.0152   14.7268  -24.6938 C   0  0  0  0  0  0  0  0  0  0  0  0
  -12.0204   14.5489  -23.5920 C   0  0  0  0  0  0  0  0  0  0  0  0
  -11.6664   13.0614  -23.7180 C   0  0  0  0  0  0  0  0  0  0  0  0
  -11.9892   12.8219  -25.1758 C   0  0  0  0  0  0  0  0  0  0  0  0
  -13.1970   13.5027  -25.3127 O   0  0  0  0  0  0  0  0  0  0  0  0
  -12.1135   11.4392  -25.5117 N   0  0  0  0  0  0  0  0  0  0  0  0
  -13.2030   10.6889  -25.7570 C   0  0  0  0  0  0  0  0  0  0  0  0
  -12.8276    9.4163  -26.0358 N   0  0  0  0  0  0  0  0  0  0  0  0
  -11.4824    9.3412  -25.9707 C   0  0  0  0  0  0  0  0  0  0  0  0
  -11.0557   10.6049  -25.6444 C   0  0  0  0  0  0  0  0  0  0  0  0
   -9.7161   10.7793  -25.5204 N   0  0  0  0  0  0  0  0  0  0  0  0
   -8.8417    9.7883  -25.7016 C   0  0  0  0  0  0  0  0  0  0  0  0
   -9.2818    8.5649  -26.0191 N   0  0  0  0  0  0  0  0  0  0  0  0
  -10.5978    8.2911  -26.1653 C   0  0  0  0  0  0  0  0  0  0  0  0
  -11.0285    6.9867  -26.5014 N   0  0  0  0  0  0  0  0  0  0  0  0
  -10.3239   12.8544  -23.4397 O   0  0  0  0  0  0  0  0  0  0  0  0
  -12.4890   14.8650  -22.3416 O   0  0  0  0  0  0  0  0  0  0  0  0
  -15.1803   14.7324  -24.3878 H   0  0  0  0  0  0  0  0  0  0  0  0
  -14.2039   15.5629  -23.0623 H   0  0  0  0  0  0  0  0  0  0  0  0
  -12.6053   15.4215  -25.4543 H   0  0  0  0  0  0  0  0  0  0  0  0
  -11.0622   15.0855  -23.8361 H   0  0  0  0  0  0  0  0  0  0  0  0
  -12.3382   12.4334  -23.1011 H   0  0  0  0  0  0  0  0  0  0  0  0
  -11.2420   13.3648  -25.7725 H   0  0  0  0  0  0  0  0  0  0  0  0
  -14.2233   11.0453  -25.7353 H   0  0  0  0  0  0  0  0  0  0  0  0
   -7.7787    9.9341  -25.6014 H   0  0  0  0  0  0  0  0  0  0  0  0
  -10.5165    6.1737  -26.0935 H   0  0  0  0  0  0  0  0  0  0  0  0
  -11.8278    6.7689  -27.1330 H   0  0  0  0  0  0  0  0  0  0  0  0
  -10.2215   12.9259  -22.4566 H   0  0  0  0  0  0  0  0  0  0  0  0
  -11.9108   15.6142  -21.9914 H   0  0  0  0  0  0  0  0  0  0  0  0
  1  2  1  0
  2  3  1  0
  3  4  1  0
  4  5  1  0
  5  6  1  0
  5  7  1  0
  7  8  1  0
  8  9  2  0
  9 10  1  0
 10 11  2  0
 11 12  1  0
 12 13  2  0
 13 14  1  0
 14 15  2  0
 15 16  1  0
  4 17  1  0
  3 18  1  0
  6  2  1  0
 11  7  1  0
 15 10  1  0
  1 19  1  0
  1 20  1  0
  2 21  1  0
  3 22  1  0
  4 23  1  0
  5 24  1  0
  8 25  1  0
 13 26  1  0
 16 27  1  0
 16 28  1  0
 17 29  1  0
 18 30  1  0
M  RAD  1   1   2
M  END
$$$$

     RDKit          3D

 30 32  0  0  0  0  0  0  0  0999 V2000
  -11.1246   14.4306  -22.3875 C   0  0  0  0  0  3  0  0  0  0  0  0
  -12.4023   13.8791  -22.9904 C   0  0  0  0  0  0  0  0  0  0  0  0
  -12.7973   14.7423  -24.1390 C   0  0  0  0  0  0  0  0  0  0  0  0
  -12.4431   13.8565  -25.3363 C   0  0  0  0  0  0  0  0  0  0  0  0
  -11.4362   12.9192  -24.6717 C   0  0  0  0  0  0  0  0  0  0  0  0
  -12.1012   12.6144  -23.4923 O   0  0  0  0  0  0  0  0  0  0  0  0
  -11.2287   11.7793  -25.5173 N   0  0  0  0  0  0  0  0  0  0  0  0
  -11.1738   11.8728  -26.8608 C   0  0  0  0  0  0  0  0  0  0  0  0
  -10.9721   10.6534  -27.3658 N   0  0  0  0  0  0  0  0  0  0  0  0
  -10.9016    9.7992  -26.3311 C   0  0  0  0  0  0  0  0  0  0  0  0
  -11.0623   10.4988  -25.1556 C   0  0  0  0  0  0  0  0  0  0  0  0
  -11.0265    9.8448  -24.0069 N   0  0  0  0  0  0  0  0  0  0  0  0
  -10.8322    8.4944  -23.9959 C   0  0  0  0  0  0  0  0  0  0  0  0
  -10.6746    7.8083  -25.1476 N   0  0  0  0  0  0  0  0  0  0  0  0
  -10.7036    8.4295  -26.3384 C   0  0  0  0  0  0  0  0  0  0  0  0
  -10.5432    7.7528  -27.5701 N   0  0  0  0  0  0  0  0  0  0  0  0
  -13.5728   13.1875  -25.7503 O   0  0  0  0  0  0  0  0  0  0  0  0
  -14.1309   15.0449  -24.1990 O   0  0  0  0  0  0  0  0  0  0  0  0
  -11.2946   14.9668  -21.4445 H   0  0  0  0  0  0  0  0  0  0  0  0
  -10.6053   15.1110  -23.0819 H   0  0  0  0  0  0  0  0  0  0  0  0
  -13.2042   13.8248  -22.2202 H   0  0  0  0  0  0  0  0  0  0  0  0
  -12.1421   15.6466  -24.2437 H   0  0  0  0  0  0  0  0  0  0  0  0
  -11.9607   14.4118  -26.1386 H   0  0  0  0  0  0  0  0  0  0  0  0
  -10.5216   13.5241  -24.5164 H   0  0  0  0  0  0  0  0  0  0  0  0
  -11.2702   12.7610  -27.4852 H   0  0  0  0  0  0  0  0  0  0  0  0
  -10.8017    7.9531  -23.0608 H   0  0  0  0  0  0  0  0  0  0  0  0
  -11.3962    7.2604  -27.9690 H   0  0  0  0  0  0  0  0  0  0  0  0
   -9.6186    7.7360  -28.0729 H   0  0  0  0  0  0  0  0  0  0  0  0
  -13.8151   12.4051  -25.2270 H   0  0  0  0  0  0  0  0  0  0  0  0
  -14.4725   15.2000  -23.2863 H   0  0  0  0  0  0  0  0  0  0  0  0
  1  2  1  0
  2  3  1  0
  3  4  1  0
  4  5  1  0
  5  6  1  0
  5  7  1  0
  7  8  1  0
  8  9  2  0
  9 10  1  0
 10 11  2  0
 11 12  1  0
 12 13  2  0
 13 14  1  0
 14 15  2  0
 15 16  1  0
  4 17  1  0
  3 18  1  0
  6  2  1  0
 11  7  1  0
 15 10  1  0
  1 19  1  0
  1 20  1  0
  2 21  1  0
  3 22  1  0
  4 23  1  0
  5 24  1  0
  8 25  1  0
 13 26  1  0
 16 27  1  0
 16 28  1  0
 17 29  1  0
 18 30  1  0
M  RAD  1   1   2
M  END
$$$$

     RDKit          3D

 30 32  0  0  0  0  0  0  0  0999 V2000
  -14.2838   15.1279  -24.2666 C   0  0  0  0  0  3  0  0  0  0  0  0
  -13.3980   14.0810  -23.6097 C   0  0  0  0  0  0  0  0  0  0  0  0
  -11.9530   14.4743  -23.6075 C   0  0  0  0  0  0  0  0  0  0  0  0
  -11.3031   13.2457  -24.2522 C   0  0  0  0  0  0  0  0  0  0  0  0
  -12.4226   12.7878  -25.1522 C   0  0  0  0  0  0  0  0  0  0  0  0
  -13.5276   12.9107  -24.3244 O   0  0  0  0  0  0  0  0  0  0  0  0
  -12.2522   11.4527  -25.6183 N   0  0  0  0  0  0  0  0  0  0  0  0
  -13.1975   10.7386  -26.2507 C   0  0  0  0  0  0  0  0  0  0  0  0
  -12.7340    9.5144  -26.5646 N   0  0  0  0  0  0  0  0  0  0  0  0
  -11.4730    9.4115  -26.1393 C   0  0  0  0  0  0  0  0  0  0  0  0
  -11.1722   10.6410  -25.5408 C   0  0  0  0  0  0  0  0  0  0  0  0
   -9.9738   10.8495  -25.0153 N   0  0  0  0  0  0  0  0  0  0  0  0
   -9.0522    9.8726  -25.0618 C   0  0  0  0  0  0  0  0  0  0  0  0
   -9.3334    8.6852  -25.6363 N   0  0  0  0  0  0  0  0  0  0  0  0
  -10.5267    8.4073  -26.1875 C   0  0  0  0  0  0  0  0  0  0  0  0
  -10.8701    7.1829  -26.7997 N   0  0  0  0  0  0  0  0  0  0  0  0
  -10.1469   13.5624  -24.9208 O   0  0  0  0  0  0  0  0  0  0  0  0
  -11.5068   14.6625  -22.3084 O   0  0  0  0  0  0  0  0  0  0  0  0
  -15.2822   15.0255  -23.7913 H   0  0  0  0  0  0  0  0  0  0  0  0
  -14.3791   14.8833  -25.3497 H   0  0  0  0  0  0  0  0  0  0  0  0
  -13.7381   13.8614  -22.5620 H   0  0  0  0  0  0  0  0  0  0  0  0
  -11.7463   15.3868  -24.2027 H   0  0  0  0  0  0  0  0  0  0  0  0
  -11.1283   12.4910  -23.4648 H   0  0  0  0  0  0  0  0  0  0  0  0
  -12.5087   13.5409  -25.9745 H   0  0  0  0  0  0  0  0  0  0  0  0
  -14.2086   11.1058  -26.4789 H   0  0  0  0  0  0  0  0  0  0  0  0
   -8.0532   10.0419  -24.6255 H   0  0  0  0  0  0  0  0  0  0  0  0
  -10.7950    7.1471  -27.8605 H   0  0  0  0  0  0  0  0  0  0  0  0
  -11.1853    6.3292  -26.2985 H   0  0  0  0  0  0  0  0  0  0  0  0
   -9.4045   13.5379  -24.2778 H   0  0  0  0  0  0  0  0  0  0  0  0
  -11.5780   15.6478  -22.1272 H   0  0  0  0  0  0  0  0  0  0  0  0
  1  2  1  0
  2  3  1  0
  3  4  1  0
  4  5  1  0
  5  6  1  0
  5  7  1  0
  7  8  1  0
  8  9  2  0
  9 10  1  0
 10 11  2  0
 11 12  1  0
 12 13  2  0
 13 14  1  0
 14 15  2  0
 15 16  1  0
  4 17  1  0
  3 18  1  0
  6  2  1  0
 11  7  1  0
 15 10  1  0
  1 19  1  0
  1 20  1  0
  2 21  1  0
  3 22  1  0
  4 23  1  0
  5 24  1  0
  8 25  1  0
 13 26  1  0
 16 27  1  0
 16 28  1  0
 17 29  1  0
 18 30  1  0
M  RAD  1   1   2
M  END
$$$$

     RDKit          3D

 30 32  0  0  0  0  0  0  0  0999 V2000
  -12.6119   13.1143  -22.0362 C   0  0  0  0  0  3  0  0  0  0  0  0
  -13.1377   13.8868  -23.2504 C   0  0  0  0  0  0  0  0  0  0  0  0
  -12.0493   14.8135  -23.7620 C   0  0  0  0  0  0  0  0  0  0  0  0
  -11.4316   13.9731  -24.8881 C   0  0  0  0  0  0  0  0  0  0  0  0
  -11.9344   12.6033  -24.4868 C   0  0  0  0  0  0  0  0  0  0  0  0
  -13.2962   12.9047  -24.2575 O   0  0  0  0  0  0  0  0  0  0  0  0
  -11.7519   11.6068  -25.4885 N   0  0  0  0  0  0  0  0  0  0  0  0
  -12.0377   11.5920  -26.7800 C   0  0  0  0  0  0  0  0  0  0  0  0
  -11.6786   10.4091  -27.3377 N   0  0  0  0  0  0  0  0  0  0  0  0
  -11.1435    9.6376  -26.3702 C   0  0  0  0  0  0  0  0  0  0  0  0
  -11.1935   10.3876  -25.2301 C   0  0  0  0  0  0  0  0  0  0  0  0
  -10.7136    9.8457  -24.0901 N   0  0  0  0  0  0  0  0  0  0  0  0
  -10.1917    8.6100  -24.0236 C   0  0  0  0  0  0  0  0  0  0  0  0
  -10.1414    7.8774  -25.1310 N   0  0  0  0  0  0  0  0  0  0  0  0
  -10.6100    8.3724  -26.3057 C   0  0  0  0  0  0  0  0  0  0  0  0
  -10.5753    7.6220  -27.5141 N   0  0  0  0  0  0  0  0  0  0  0  0
  -12.0603   14.3443  -26.0494 O   0  0  0  0  0  0  0  0  0  0  0  0
  -12.5685   16.0075  -24.2546 O   0  0  0  0  0  0  0  0  0  0  0  0
  -13.2521   12.2411  -21.9108 H   0  0  0  0  0  0  0  0  0  0  0  0
  -12.4852   13.7479  -21.1596 H   0  0  0  0  0  0  0  0  0  0  0  0
  -14.0676   14.4161  -23.0372 H   0  0  0  0  0  0  0  0  0  0  0  0
  -11.3094   14.9589  -22.9579 H   0  0  0  0  0  0  0  0  0  0  0  0
  -10.3440   14.0567  -24.9055 H   0  0  0  0  0  0  0  0  0  0  0  0
  -11.4709   12.3489  -23.5354 H   0  0  0  0  0  0  0  0  0  0  0  0
  -12.4997   12.4262  -27.3099 H   0  0  0  0  0  0  0  0  0  0  0  0
   -9.8211    8.2375  -23.0599 H   0  0  0  0  0  0  0  0  0  0  0  0
  -10.9624    6.6475  -27.5212 H   0  0  0  0  0  0  0  0  0  0  0  0
  -10.1868    7.9736  -28.4106 H   0  0  0  0  0  0  0  0  0  0  0  0
  -13.0367   14.2999  -25.9008 H   0  0  0  0  0  0  0  0  0  0  0  0
  -13.4550   16.1446  -23.8023 H   0  0  0  0  0  0  0  0  0  0  0  0
  1  2  1  0
  2  3  1  0
  3  4  1  0
  4  5  1  0
  5  6  1  0
  5  7  1  0
  7  8  1  0
  8  9  2  0
  9 10  1  0
 10 11  2  0
 11 12  1  0
 12 13  2  0
 13 14  1  0
 14 15  2  0
 15 16  1  0
  4 17  1  0
  3 18  1  0
  6  2  1  0
 11  7  1  0
 15 10  1  0
  1 19  1  0
  1 20  1  0
  2 21  1  0
  3 22  1  0
  4 23  1  0
  5 24  1  0
  8 25  1  0
 13 26  1  0
 16 27  1  0
 16 28  1  0
 17 29  1  0
 18 30  1  0
M  RAD  1   1   2
M  END
$$$$

     RDKit          3D

 30 32  0  0  0  0  0  0  0  0999 V2000
  -12.5137   14.0449  -21.7535 C   0  0  0  0  0  3  0  0  0  0  0  0
  -11.9771   14.0337  -23.1435 C   0  0  0  0  0  0  0  0  0  0  0  0
  -13.0758   14.3473  -24.1437 C   0  0  0  0  0  0  0  0  0  0  0  0
  -12.4686   13.7716  -25.4236 C   0  0  0  0  0  0  0  0  0  0  0  0
  -11.2731   13.0024  -24.8789 C   0  0  0  0  0  0  0  0  0  0  0  0
  -11.6038   12.7373  -23.5697 O   0  0  0  0  0  0  0  0  0  0  0  0
  -11.0341   11.8334  -25.6762 N   0  0  0  0  0  0  0  0  0  0  0  0
  -10.6429   11.8869  -26.9620 C   0  0  0  0  0  0  0  0  0  0  0  0
  -10.5172   10.6141  -27.3877 N   0  0  0  0  0  0  0  0  0  0  0  0
  -10.8289    9.7862  -26.3706 C   0  0  0  0  0  0  0  0  0  0  0  0
  -11.1604   10.5527  -25.2731 C   0  0  0  0  0  0  0  0  0  0  0  0
  -11.5208    9.9964  -24.0933 N   0  0  0  0  0  0  0  0  0  0  0  0
  -11.5627    8.6491  -23.9685 C   0  0  0  0  0  0  0  0  0  0  0  0
  -11.2411    7.8903  -25.0333 N   0  0  0  0  0  0  0  0  0  0  0  0
  -10.8776    8.4054  -26.2239 C   0  0  0  0  0  0  0  0  0  0  0  0
  -10.5397    7.5943  -27.3430 N   0  0  0  0  0  0  0  0  0  0  0  0
  -12.0772   14.8494  -26.2018 O   0  0  0  0  0  0  0  0  0  0  0  0
  -14.2124   13.6124  -23.8097 O   0  0  0  0  0  0  0  0  0  0  0  0
  -11.8331   13.4756  -21.0616 H   0  0  0  0  0  0  0  0  0  0  0  0
  -12.4473   15.1057  -21.3870 H   0  0  0  0  0  0  0  0  0  0  0  0
  -11.1325   14.7397  -23.2496 H   0  0  0  0  0  0  0  0  0  0  0  0
  -13.2520   15.4249  -24.2147 H   0  0  0  0  0  0  0  0  0  0  0  0
  -13.1738   13.0904  -25.9400 H   0  0  0  0  0  0  0  0  0  0  0  0
  -10.3565   13.6401  -24.8794 H   0  0  0  0  0  0  0  0  0  0  0  0
  -10.4522   12.7646  -27.5809 H   0  0  0  0  0  0  0  0  0  0  0  0
  -11.8450    8.1566  -23.0446 H   0  0  0  0  0  0  0  0  0  0  0  0
   -9.7059    6.9670  -27.3187 H   0  0  0  0  0  0  0  0  0  0  0  0
  -11.1021    7.5918  -28.2222 H   0  0  0  0  0  0  0  0  0  0  0  0
  -11.9273   14.6422  -27.1394 H   0  0  0  0  0  0  0  0  0  0  0  0
  -14.8194   13.6800  -24.6071 H   0  0  0  0  0  0  0  0  0  0  0  0
  1  2  1  0
  2  3  1  0
  3  4  1  0
  4  5  1  0
  5  6  1  0
  5  7  1  0
  7  8  1  0
  8  9  2  0
  9 10  1  0
 10 11  2  0
 11 12  1  0
 12 13  2  0
 13 14  1  0
 14 15  2  0
 15 16  1  0
  4 17  1  0
  3 18  1  0
  6  2  1  0
 11  7  1  0
 15 10  1  0
  1 19  1  0
  1 20  1  0
  2 21  1  0
  3 22  1  0
  4 23  1  0
  5 24  1  0
  8 25  1  0
 13 26  1  0
 16 27  1  0
 16 28  1  0
 17 29  1  0
 18 30  1  0
M  RAD  1   1   2
M  END
$$$$

     RDKit          3D

 30 32  0  0  0  0  0  0  0  0999 V2000
  -13.2426   13.6544  -21.8417 C   0  0  0  0  0  3  0  0  0  0  0  0
  -12.3929   13.7594  -23.0609 C   0  0  0  0  0  0  0  0  0  0  0  0
  -13.1960   14.2044  -24.2925 C   0  0  0  0  0  0  0  0  0  0  0  0
  -12.1570   13.9107  -25.3822 C   0  0  0  0  0  0  0  0  0  0  0  0
  -11.2848   12.8857  -24.7095 C   0  0  0  0  0  0  0  0  0  0  0  0
  -11.8993   12.5467  -23.5074 O   0  0  0  0  0  0  0  0  0  0  0  0
  -11.1533   11.7385  -25.5978 N   0  0  0  0  0  0  0  0  0  0  0  0
  -11.0667   11.7724  -26.9399 C   0  0  0  0  0  0  0  0  0  0  0  0
  -10.9552   10.5241  -27.4286 N   0  0  0  0  0  0  0  0  0  0  0  0
  -10.9688    9.6781  -26.4114 C   0  0  0  0  0  0  0  0  0  0  0  0
  -11.0925   10.4365  -25.2675 C   0  0  0  0  0  0  0  0  0  0  0  0
  -11.1319    9.8109  -24.0714 N   0  0  0  0  0  0  0  0  0  0  0  0
  -11.0533    8.4613  -23.9661 C   0  0  0  0  0  0  0  0  0  0  0  0
  -10.9336    7.7586  -25.1024 N   0  0  0  0  0  0  0  0  0  0  0  0
  -10.8862    8.2835  -26.3221 C   0  0  0  0  0  0  0  0  0  0  0  0
  -10.7591    7.5305  -27.5225 N   0  0  0  0  0  0  0  0  0  0  0  0
  -11.4654   15.1091  -25.6079 O   0  0  0  0  0  0  0  0  0  0  0  0
  -13.4885   15.5432  -24.2244 O   0  0  0  0  0  0  0  0  0  0  0  0
  -14.0382   12.9202  -22.0171 H   0  0  0  0  0  0  0  0  0  0  0  0
  -13.7318   14.6416  -21.6800 H   0  0  0  0  0  0  0  0  0  0  0  0
  -11.5728   14.4942  -22.9486 H   0  0  0  0  0  0  0  0  0  0  0  0
  -14.0631   13.5481  -24.4691 H   0  0  0  0  0  0  0  0  0  0  0  0
  -12.6158   13.5181  -26.2952 H   0  0  0  0  0  0  0  0  0  0  0  0
  -10.2834   13.2757  -24.4688 H   0  0  0  0  0  0  0  0  0  0  0  0
  -11.0896   12.7067  -27.4887 H   0  0  0  0  0  0  0  0  0  0  0  0
  -11.0870    7.9763  -22.9908 H   0  0  0  0  0  0  0  0  0  0  0  0
  -11.2275    7.8295  -28.4199 H   0  0  0  0  0  0  0  0  0  0  0  0
  -10.1980    6.6550  -27.5596 H   0  0  0  0  0  0  0  0  0  0  0  0
  -11.7429   15.4589  -26.4966 H   0  0  0  0  0  0  0  0  0  0  0  0
  -13.7164   15.8380  -25.1622 H   0  0  0  0  0  0  0  0  0  0  0  0
  1  2  1  0
  2  3  1  0
  3  4  1  0
  4  5  1  0
  5  6  1  0
  5  7  1  0
  7  8  1  0
  8  9  2  0
  9 10  1  0
 10 11  2  0
 11 12  1  0
 12 13  2  0
 13 14  1  0
 14 15  2  0
 15 16  1  0
  4 17  1  0
  3 18  1  0
  6  2  1  0
 11  7  1  0
 15 10  1  0
  1 19  1  0
  1 20  1  0
  2 21  1  0
  3 22  1  0
  4 23  1  0
  5 24  1  0
  8 25  1  0
 13 26  1  0
 16 27  1  0
 16 28  1  0
 17 29  1  0
 18 30  1  0
M  RAD  1   1   2
M  END
$$$$

     RDKit          3D

 30 32  0  0  0  0  0  0  0  0999 V2000
  -13.6923   13.9259  -22.1930 C   0  0  0  0  0  3  0  0  0  0  0  0
  -13.4179   14.2455  -23.6252 C   0  0  0  0  0  0  0  0  0  0  0  0
  -11.9829   14.6795  -23.7901 C   0  0  0  0  0  0  0  0  0  0  0  0
  -11.2756   13.4140  -24.2429 C   0  0  0  0  0  0  0  0  0  0  0  0
  -12.3848   12.4139  -24.2477 C   0  0  0  0  0  0  0  0  0  0  0  0
  -13.5591   13.1266  -24.4630 O   0  0  0  0  0  0  0  0  0  0  0  0
  -12.1541   11.4149  -25.2595 N   0  0  0  0  0  0  0  0  0  0  0  0
  -12.7502   11.2505  -26.4542 C   0  0  0  0  0  0  0  0  0  0  0  0
  -12.2215   10.1815  -27.0801 N   0  0  0  0  0  0  0  0  0  0  0  0
  -11.2792    9.6474  -26.2932 C   0  0  0  0  0  0  0  0  0  0  0  0
  -11.2415   10.4324  -25.1430 C   0  0  0  0  0  0  0  0  0  0  0  0
  -10.3452   10.0592  -24.2077 N   0  0  0  0  0  0  0  0  0  0  0  0
   -9.5285    8.9996  -24.3534 C   0  0  0  0  0  0  0  0  0  0  0  0
   -9.5783    8.2428  -25.4842 N   0  0  0  0  0  0  0  0  0  0  0  0
  -10.4410    8.5594  -26.4437 C   0  0  0  0  0  0  0  0  0  0  0  0
  -10.5387    7.7992  -27.6568 N   0  0  0  0  0  0  0  0  0  0  0  0
  -10.7679   13.5562  -25.5280 O   0  0  0  0  0  0  0  0  0  0  0  0
  -11.9684   15.6596  -24.7903 O   0  0  0  0  0  0  0  0  0  0  0  0
  -14.6429   13.4173  -22.0139 H   0  0  0  0  0  0  0  0  0  0  0  0
  -12.8421   13.5292  -21.6373 H   0  0  0  0  0  0  0  0  0  0  0  0
  -14.0957   15.0704  -23.9313 H   0  0  0  0  0  0  0  0  0  0  0  0
  -11.5352   15.0315  -22.8554 H   0  0  0  0  0  0  0  0  0  0  0  0
  -10.5067   13.0845  -23.5163 H   0  0  0  0  0  0  0  0  0  0  0  0
  -12.5008   11.8865  -23.2718 H   0  0  0  0  0  0  0  0  0  0  0  0
  -13.5432   11.8839  -26.8613 H   0  0  0  0  0  0  0  0  0  0  0  0
   -8.8133    8.7232  -23.5772 H   0  0  0  0  0  0  0  0  0  0  0  0
  -10.8968    8.1996  -28.5283 H   0  0  0  0  0  0  0  0  0  0  0  0
  -10.2323    6.7846  -27.6648 H   0  0  0  0  0  0  0  0  0  0  0  0
   -9.8471   13.9514  -25.4107 H   0  0  0  0  0  0  0  0  0  0  0  0
  -11.1027   16.0917  -24.8861 H   0  0  0  0  0  0  0  0  0  0  0  0
  1  2  1  0
  2  3  1  0
  3  4  1  0
  4  5  1  0
  5  6  1  0
  5  7  1  0
  7  8  1  0
  8  9  2  0
  9 10  1  0
 10 11  2  0
 11 12  1  0
 12 13  2  0
 13 14  1  0
 14 15  2  0
 15 16  1  0
  4 17  1  0
  3 18  1  0
  6  2  1  0
 11  7  1  0
 15 10  1  0
  1 19  1  0
  1 20  1  0
  2 21  1  0
  3 22  1  0
  4 23  1  0
  5 24  1  0
  8 25  1  0
 13 26  1  0
 16 27  1  0
 16 28  1  0
 17 29  1  0
 18 30  1  0
M  RAD  1   1   2
M  END
$$$$

     RDKit          3D

 30 32  0  0  0  0  0  0  0  0999 V2000
  -14.0250   14.2288  -22.3806 C   0  0  0  0  0  3  0  0  0  0  0  0
  -12.7648   13.8071  -23.0635 C   0  0  0  0  0  0  0  0  0  0  0  0
  -12.2006   14.8488  -23.9859 C   0  0  0  0  0  0  0  0  0  0  0  0
  -11.9505   14.0369  -25.2650 C   0  0  0  0  0  0  0  0  0  0  0  0
  -11.7991   12.6745  -24.6264 C   0  0  0  0  0  0  0  0  0  0  0  0
  -12.9359   12.6397  -23.8297 O   0  0  0  0  0  0  0  0  0  0  0  0
  -11.7124   11.6031  -25.5658 N   0  0  0  0  0  0  0  0  0  0  0  0
  -12.1812   11.4812  -26.8150 C   0  0  0  0  0  0  0  0  0  0  0  0
  -11.8492   10.2635  -27.3259 N   0  0  0  0  0  0  0  0  0  0  0  0
  -11.1597    9.5997  -26.3910 C   0  0  0  0  0  0  0  0  0  0  0  0
  -11.0812   10.4405  -25.3040 C   0  0  0  0  0  0  0  0  0  0  0  0
  -10.4242    9.9918  -24.2165 N   0  0  0  0  0  0  0  0  0  0  0  0
   -9.8486    8.8022  -24.1160 C   0  0  0  0  0  0  0  0  0  0  0  0
   -9.9130    7.9686  -25.1618 N   0  0  0  0  0  0  0  0  0  0  0  0
  -10.5614    8.3588  -26.2914 C   0  0  0  0  0  0  0  0  0  0  0  0
  -10.6296    7.4770  -27.3979 N   0  0  0  0  0  0  0  0  0  0  0  0
  -13.1236   14.1462  -26.0107 O   0  0  0  0  0  0  0  0  0  0  0  0
  -10.9670   15.2395  -23.5089 O   0  0  0  0  0  0  0  0  0  0  0  0
  -14.9415   13.9964  -22.9631 H   0  0  0  0  0  0  0  0  0  0  0  0
  -14.0879   13.7859  -21.3654 H   0  0  0  0  0  0  0  0  0  0  0  0
  -12.0346   13.5174  -22.2586 H   0  0  0  0  0  0  0  0  0  0  0  0
  -12.8924   15.6881  -24.1778 H   0  0  0  0  0  0  0  0  0  0  0  0
  -11.0722   14.3754  -25.8084 H   0  0  0  0  0  0  0  0  0  0  0  0
  -10.9216   12.7388  -23.9500 H   0  0  0  0  0  0  0  0  0  0  0  0
  -12.7432   12.2539  -27.3288 H   0  0  0  0  0  0  0  0  0  0  0  0
   -9.3461    8.5524  -23.1843 H   0  0  0  0  0  0  0  0  0  0  0  0
  -11.4773    6.8857  -27.5081 H   0  0  0  0  0  0  0  0  0  0  0  0
   -9.8563    7.4287  -28.0705 H   0  0  0  0  0  0  0  0  0  0  0  0
  -13.0196   14.9355  -26.6028 H   0  0  0  0  0  0  0  0  0  0  0  0
  -10.5531   14.6237  -22.8757 H   0  0  0  0  0  0  0  0  0  0  0  0
  1  2  1  0
  2  3  1  0
  3  4  1  0
  4  5  1  0
  5  6  1  0
  5  7  1  0
  7  8  1  0
  8  9  2  0
  9 10  1  0
 10 11  2  0
 11 12  1  0
 12 13  2  0
 13 14  1  0
 14 15  2  0
 15 16  1  0
  4 17  1  0
  3 18  1  0
  6  2  1  0
 11  7  1  0
 15 10  1  0
  1 19  1  0
  1 20  1  0
  2 21  1  0
  3 22  1  0
  4 23  1  0
  5 24  1  0
  8 25  1  0
 13 26  1  0
 16 27  1  0
 16 28  1  0
 17 29  1  0
 18 30  1  0
M  RAD  1   1   2
M  END
$$$$

     RDKit          3D

 30 32  0  0  0  0  0  0  0  0999 V2000
  -12.8231   13.6659  -21.7080 C   0  0  0  0  0  3  0  0  0  0  0  0
  -12.0317   13.3989  -22.9580 C   0  0  0  0  0  0  0  0  0  0  0  0
  -11.9057   14.6462  -23.8304 C   0  0  0  0  0  0  0  0  0  0  0  0
  -11.5134   13.9552  -25.1438 C   0  0  0  0  0  0  0  0  0  0  0  0
  -12.4164   12.7426  -25.0638 C   0  0  0  0  0  0  0  0  0  0  0  0
  -12.5958   12.4333  -23.7450 O   0  0  0  0  0  0  0  0  0  0  0  0
  -11.9304   11.6420  -25.8564 N   0  0  0  0  0  0  0  0  0  0  0  0
  -11.8868   11.5920  -27.1876 C   0  0  0  0  0  0  0  0  0  0  0  0
  -11.3730   10.4086  -27.5204 N   0  0  0  0  0  0  0  0  0  0  0  0
  -11.0832    9.6916  -26.4301 C   0  0  0  0  0  0  0  0  0  0  0  0
  -11.4499   10.5036  -25.3531 C   0  0  0  0  0  0  0  0  0  0  0  0
  -11.2707   10.0390  -24.1246 N   0  0  0  0  0  0  0  0  0  0  0  0
  -10.7605    8.8399  -23.8366 C   0  0  0  0  0  0  0  0  0  0  0  0
  -10.4047    8.0520  -24.8810 N   0  0  0  0  0  0  0  0  0  0  0  0
  -10.5588    8.4600  -26.1508 C   0  0  0  0  0  0  0  0  0  0  0  0
  -10.1730    7.6025  -27.2095 N   0  0  0  0  0  0  0  0  0  0  0  0
  -11.7921   14.7443  -26.2397 O   0  0  0  0  0  0  0  0  0  0  0  0
  -13.1576   15.1905  -24.0173 O   0  0  0  0  0  0  0  0  0  0  0  0
  -12.4061   13.1559  -20.8210 H   0  0  0  0  0  0  0  0  0  0  0  0
  -12.9926   14.7235  -21.5020 H   0  0  0  0  0  0  0  0  0  0  0  0
  -10.9654   13.1151  -22.7143 H   0  0  0  0  0  0  0  0  0  0  0  0
  -11.1489   15.3394  -23.4795 H   0  0  0  0  0  0  0  0  0  0  0  0
  -10.4407   13.6309  -25.1036 H   0  0  0  0  0  0  0  0  0  0  0  0
  -13.3886   13.0617  -25.5417 H   0  0  0  0  0  0  0  0  0  0  0  0
  -12.2268   12.4086  -27.8379 H   0  0  0  0  0  0  0  0  0  0  0  0
  -10.6573    8.5601  -22.8116 H   0  0  0  0  0  0  0  0  0  0  0  0
  -10.8730    7.2104  -27.8802 H   0  0  0  0  0  0  0  0  0  0  0  0
   -9.1811    7.3233  -27.3698 H   0  0  0  0  0  0  0  0  0  0  0  0
  -11.2256   14.4261  -26.9836 H   0  0  0  0  0  0  0  0  0  0  0  0
  -13.3859   15.2522  -24.9789 H   0  0  0  0  0  0  0  0  0  0  0  0
  1  2  1  0
  2  3  1  0
  3  4  1  0
  4  5  1  0
  5  6  1  0
  5  7  1  0
  7  8  1  0
  8  9  2  0
  9 10  1  0
 10 11  2  0
 11 12  1  0
 12 13  2  0
 13 14  1  0
 14 15  2  0
 15 16  1  0
  4 17  1  0
  3 18  1  0
  6  2  1  0
 11  7  1  0
 15 10  1  0
  1 19  1  0
  1 20  1  0
  2 21  1  0
  3 22  1  0
  4 23  1  0
  5 24  1  0
  8 25  1  0
 13 26  1  0
 16 27  1  0
 16 28  1  0
 17 29  1  0
 18 30  1  0
M  RAD  1   1   2
M  END
$$$$

     RDKit          3D

 30 32  0  0  0  0  0  0  0  0999 V2000
  -12.5787   13.9800  -22.2189 C   0  0  0  0  0  3  0  0  0  0  0  0
  -13.3769   14.0840  -23.4929 C   0  0  0  0  0  0  0  0  0  0  0  0
  -12.4893   14.8352  -24.4943 C   0  0  0  0  0  0  0  0  0  0  0  0
  -11.3775   13.7991  -24.6615 C   0  0  0  0  0  0  0  0  0  0  0  0
  -12.0610   12.5173  -24.2640 C   0  0  0  0  0  0  0  0  0  0  0  0
  -13.4164   12.8285  -24.0744 O   0  0  0  0  0  0  0  0  0  0  0  0
  -11.9274   11.4848  -25.2612 N   0  0  0  0  0  0  0  0  0  0  0  0
  -12.5776   11.4606  -26.4494 C   0  0  0  0  0  0  0  0  0  0  0  0
  -12.1835   10.3425  -27.0846 N   0  0  0  0  0  0  0  0  0  0  0  0
  -11.3185    9.6907  -26.3224 C   0  0  0  0  0  0  0  0  0  0  0  0
  -11.1326   10.3937  -25.1497 C   0  0  0  0  0  0  0  0  0  0  0  0
  -10.2929    9.9318  -24.2054 N   0  0  0  0  0  0  0  0  0  0  0  0
   -9.6212    8.7797  -24.3864 C   0  0  0  0  0  0  0  0  0  0  0  0
   -9.8144    8.1070  -25.5359 N   0  0  0  0  0  0  0  0  0  0  0  0
  -10.6315    8.5076  -26.5133 C   0  0  0  0  0  0  0  0  0  0  0  0
  -10.8086    7.7702  -27.7112 N   0  0  0  0  0  0  0  0  0  0  0  0
  -10.4022   14.1339  -23.7095 O   0  0  0  0  0  0  0  0  0  0  0  0
  -13.1169   14.9613  -25.7211 O   0  0  0  0  0  0  0  0  0  0  0  0
  -13.1548   13.6729  -21.3493 H   0  0  0  0  0  0  0  0  0  0  0  0
  -12.0047   14.9086  -22.1108 H   0  0  0  0  0  0  0  0  0  0  0  0
  -14.3483   14.5548  -23.3768 H   0  0  0  0  0  0  0  0  0  0  0  0
  -12.1367   15.7707  -24.0655 H   0  0  0  0  0  0  0  0  0  0  0  0
  -10.9826   13.7962  -25.6812 H   0  0  0  0  0  0  0  0  0  0  0  0
  -11.6512   12.1667  -23.3058 H   0  0  0  0  0  0  0  0  0  0  0  0
  -13.2879   12.2113  -26.8173 H   0  0  0  0  0  0  0  0  0  0  0  0
   -8.9332    8.3993  -23.6150 H   0  0  0  0  0  0  0  0  0  0  0  0
  -10.1417    7.0011  -27.9377 H   0  0  0  0  0  0  0  0  0  0  0  0
  -11.5700    7.9643  -28.3668 H   0  0  0  0  0  0  0  0  0  0  0  0
   -9.7898   14.8223  -24.0192 H   0  0  0  0  0  0  0  0  0  0  0  0
  -14.0879   15.0759  -25.6578 H   0  0  0  0  0  0  0  0  0  0  0  0
  1  2  1  0
  2  3  1  0
  3  4  1  0
  4  5  1  0
  5  6  1  0
  5  7  1  0
  7  8  1  0
  8  9  2  0
  9 10  1  0
 10 11  2  0
 11 12  1  0
 12 13  2  0
 13 14  1  0
 14 15  2  0
 15 16  1  0
  4 17  1  0
  3 18  1  0
  6  2  1  0
 11  7  1  0
 15 10  1  0
  1 19  1  0
  1 20  1  0
  2 21  1  0
  3 22  1  0
  4 23  1  0
  5 24  1  0
  8 25  1  0
 13 26  1  0
 16 27  1  0
 16 28  1  0
 17 29  1  0
 18 30  1  0
M  RAD  1   1   2
M  END
$$$$

     RDKit          3D

 30 32  0  0  0  0  0  0  0  0999 V2000
  -14.3138   14.8674  -23.2519 C   0  0  0  0  0  3  0  0  0  0  0  0
  -13.4940   13.9981  -24.2131 C   0  0  0  0  0  0  0  0  0  0  0  0
  -12.1561   14.6371  -24.4279 C   0  0  0  0  0  0  0  0  0  0  0  0
  -11.1734   13.5060  -24.2187 C   0  0  0  0  0  0  0  0  0  0  0  0
  -12.0415   12.3356  -23.8649 C   0  0  0  0  0  0  0  0  0  0  0  0
  -13.3014   12.7874  -23.5899 O   0  0  0  0  0  0  0  0  0  0  0  0
  -12.0342   11.3067  -24.9017 N   0  0  0  0  0  0  0  0  0  0  0  0
  -12.9986   11.0734  -25.8082 C   0  0  0  0  0  0  0  0  0  0  0  0
  -12.6408   10.0332  -26.6128 N   0  0  0  0  0  0  0  0  0  0  0  0
  -11.4466    9.5990  -26.2226 C   0  0  0  0  0  0  0  0  0  0  0  0
  -11.0754   10.3977  -25.1559 C   0  0  0  0  0  0  0  0  0  0  0  0
   -9.9073   10.1850  -24.5595 N   0  0  0  0  0  0  0  0  0  0  0  0
   -9.1127    9.1965  -25.0082 C   0  0  0  0  0  0  0  0  0  0  0  0
   -9.4660    8.4040  -26.0562 N   0  0  0  0  0  0  0  0  0  0  0  0
  -10.6379    8.5844  -26.6880 C   0  0  0  0  0  0  0  0  0  0  0  0
  -10.9717    7.7384  -27.7766 N   0  0  0  0  0  0  0  0  0  0  0  0
  -10.2916   13.8482  -23.1660 O   0  0  0  0  0  0  0  0  0  0  0  0
  -12.0641   15.1098  -25.7339 O   0  0  0  0  0  0  0  0  0  0  0  0
  -13.6891   15.6074  -22.7421 H   0  0  0  0  0  0  0  0  0  0  0  0
  -14.9238   14.2449  -22.5753 H   0  0  0  0  0  0  0  0  0  0  0  0
  -14.0884   13.9398  -25.1471 H   0  0  0  0  0  0  0  0  0  0  0  0
  -12.0013   15.4478  -23.6782 H   0  0  0  0  0  0  0  0  0  0  0  0
  -10.6025   13.3361  -25.1330 H   0  0  0  0  0  0  0  0  0  0  0  0
  -11.6261   11.9141  -22.9017 H   0  0  0  0  0  0  0  0  0  0  0  0
  -13.9124   11.6531  -25.8562 H   0  0  0  0  0  0  0  0  0  0  0  0
   -8.1516    8.9750  -24.5646 H   0  0  0  0  0  0  0  0  0  0  0  0
  -11.8811    7.2401  -27.8627 H   0  0  0  0  0  0  0  0  0  0  0  0
  -10.2679    7.6072  -28.5339 H   0  0  0  0  0  0  0  0  0  0  0  0
   -9.5887   13.1460  -23.1759 H   0  0  0  0  0  0  0  0  0  0  0  0
  -12.7792   15.7561  -25.9135 H   0  0  0  0  0  0  0  0  0  0  0  0
  1  2  1  0
  2  3  1  0
  3  4  1  0
  4  5  1  0
  5  6  1  0
  5  7  1  0
  7  8  1  0
  8  9  2  0
  9 10  1  0
 10 11  2  0
 11 12  1  0
 12 13  2  0
 13 14  1  0
 14 15  2  0
 15 16  1  0
  4 17  1  0
  3 18  1  0
  6  2  1  0
 11  7  1  0
 15 10  1  0
  1 19  1  0
  1 20  1  0
  2 21  1  0
  3 22  1  0
  4 23  1  0
  5 24  1  0
  8 25  1  0
 13 26  1  0
 16 27  1  0
 16 28  1  0
 17 29  1  0
 18 30  1  0
M  RAD  1   1   2
M  END
$$$$

     RDKit          3D

 30 32  0  0  0  0  0  0  0  0999 V2000
  -14.5778   14.1568  -24.3539 C   0  0  0  0  0  3  0  0  0  0  0  0
  -13.1568   14.5536  -24.6692 C   0  0  0  0  0  0  0  0  0  0  0  0
  -12.3285   14.5004  -23.4187 C   0  0  0  0  0  0  0  0  0  0  0  0
  -11.5011   13.2561  -23.6317 C   0  0  0  0  0  0  0  0  0  0  0  0
  -11.5989   13.0074  -25.1030 C   0  0  0  0  0  0  0  0  0  0  0  0
  -12.5576   13.8157  -25.6349 O   0  0  0  0  0  0  0  0  0  0  0  0
  -11.7973   11.6058  -25.3943 N   0  0  0  0  0  0  0  0  0  0  0  0
  -12.9894   10.9988  -25.4933 C   0  0  0  0  0  0  0  0  0  0  0  0
  -12.7822    9.6815  -25.7767 N   0  0  0  0  0  0  0  0  0  0  0  0
  -11.4666    9.4506  -25.8578 C   0  0  0  0  0  0  0  0  0  0  0  0
  -10.8567   10.6653  -25.6161 C   0  0  0  0  0  0  0  0  0  0  0  0
   -9.5011   10.6877  -25.6447 N   0  0  0  0  0  0  0  0  0  0  0  0
   -8.8100    9.5555  -25.9010 C   0  0  0  0  0  0  0  0  0  0  0  0
   -9.4091    8.3785  -26.1350 N   0  0  0  0  0  0  0  0  0  0  0  0
  -10.7514    8.3020  -26.1181 C   0  0  0  0  0  0  0  0  0  0  0  0
  -11.4665    7.1104  -26.3524 N   0  0  0  0  0  0  0  0  0  0  0  0
  -12.0143   12.2385  -22.8571 O   0  0  0  0  0  0  0  0  0  0  0  0
  -11.5617   15.6434  -23.2982 O   0  0  0  0  0  0  0  0  0  0  0  0
  -15.1088   13.9641  -25.2895 H   0  0  0  0  0  0  0  0  0  0  0  0
  -14.6020   13.3533  -23.6166 H   0  0  0  0  0  0  0  0  0  0  0  0
  -13.1985   15.6271  -25.0109 H   0  0  0  0  0  0  0  0  0  0  0  0
  -12.9571   14.4165  -22.5109 H   0  0  0  0  0  0  0  0  0  0  0  0
  -10.4583   13.5091  -23.2969 H   0  0  0  0  0  0  0  0  0  0  0  0
  -10.6087   13.3146  -25.5495 H   0  0  0  0  0  0  0  0  0  0  0  0
  -13.9906   11.3936  -25.3852 H   0  0  0  0  0  0  0  0  0  0  0  0
   -7.7171    9.5482  -25.9293 H   0  0  0  0  0  0  0  0  0  0  0  0
  -11.5677    6.7579  -27.3148 H   0  0  0  0  0  0  0  0  0  0  0  0
  -11.8827    6.6004  -25.5602 H   0  0  0  0  0  0  0  0  0  0  0  0
  -11.5825   11.3759  -22.9564 H   0  0  0  0  0  0  0  0  0  0  0  0
  -11.7163   16.2399  -24.0796 H   0  0  0  0  0  0  0  0  0  0  0  0
  1  2  1  0
  2  3  1  0
  3  4  1  0
  4  5  1  0
  5  6  1  0
  5  7  1  0
  7  8  1  0
  8  9  2  0
  9 10  1  0
 10 11  2  0
 11 12  1  0
 12 13  2  0
 13 14  1  0
 14 15  2  0
 15 16  1  0
  4 17  1  0
  3 18  1  0
  6  2  1  0
 11  7  1  0
 15 10  1  0
  1 19  1  0
  1 20  1  0
  2 21  1  0
  3 22  1  0
  4 23  1  0
  5 24  1  0
  8 25  1  0
 13 26  1  0
 16 27  1  0
 16 28  1  0
 17 29  1  0
 18 30  1  0
M  RAD  1   1   2
M  END
$$$$

     RDKit          3D

 30 32  0  0  0  0  0  0  0  0999 V2000
  -14.5547   14.9385  -23.4724 C   0  0  0  0  0  3  0  0  0  0  0  0
  -13.3617   14.4346  -24.2325 C   0  0  0  0  0  0  0  0  0  0  0  0
  -12.1631   14.2903  -23.3006 C   0  0  0  0  0  0  0  0  0  0  0  0
  -11.5319   12.9772  -23.7833 C   0  0  0  0  0  0  0  0  0  0  0  0
  -12.2566   12.7889  -25.0972 C   0  0  0  0  0  0  0  0  0  0  0  0
  -13.5660   13.1468  -24.7371 O   0  0  0  0  0  0  0  0  0  0  0  0
  -12.2070   11.4491  -25.5885 N   0  0  0  0  0  0  0  0  0  0  0  0
  -13.1959   10.7241  -26.1573 C   0  0  0  0  0  0  0  0  0  0  0  0
  -12.7403    9.5084  -26.4807 N   0  0  0  0  0  0  0  0  0  0  0  0
  -11.4481    9.4084  -26.1331 C   0  0  0  0  0  0  0  0  0  0  0  0
  -11.1258   10.6319  -25.5748 C   0  0  0  0  0  0  0  0  0  0  0  0
   -9.8586   10.7929  -25.1361 N   0  0  0  0  0  0  0  0  0  0  0  0
   -8.9418    9.8127  -25.2330 C   0  0  0  0  0  0  0  0  0  0  0  0
   -9.2900    8.6347  -25.7818 N   0  0  0  0  0  0  0  0  0  0  0  0
  -10.5264    8.3804  -26.2466 C   0  0  0  0  0  0  0  0  0  0  0  0
  -10.8968    7.1460  -26.8234 N   0  0  0  0  0  0  0  0  0  0  0  0
  -10.1830   13.1933  -23.9938 O   0  0  0  0  0  0  0  0  0  0  0  0
  -11.2792   15.3500  -23.4838 O   0  0  0  0  0  0  0  0  0  0  0  0
  -15.2053   15.6044  -24.0472 H   0  0  0  0  0  0  0  0  0  0  0  0
  -15.0902   14.1311  -22.9671 H   0  0  0  0  0  0  0  0  0  0  0  0
  -13.1093   15.1152  -25.0950 H   0  0  0  0  0  0  0  0  0  0  0  0
  -12.5569   14.2095  -22.2842 H   0  0  0  0  0  0  0  0  0  0  0  0
  -11.7578   12.1901  -23.0568 H   0  0  0  0  0  0  0  0  0  0  0  0
  -11.8905   13.5542  -25.7953 H   0  0  0  0  0  0  0  0  0  0  0  0
  -14.2128   11.0365  -26.3426 H   0  0  0  0  0  0  0  0  0  0  0  0
   -7.9155    9.9722  -24.8666 H   0  0  0  0  0  0  0  0  0  0  0  0
  -10.7473    6.2883  -26.2490 H   0  0  0  0  0  0  0  0  0  0  0  0
  -11.3062    7.0305  -27.7757 H   0  0  0  0  0  0  0  0  0  0  0  0
   -9.6746   13.0857  -23.1515 H   0  0  0  0  0  0  0  0  0  0  0  0
  -11.4695   15.8535  -24.3219 H   0  0  0  0  0  0  0  0  0  0  0  0
  1  2  1  0
  2  3  1  0
  3  4  1  0
  4  5  1  0
  5  6  1  0
  5  7  1  0
  7  8  1  0
  8  9  2  0
  9 10  1  0
 10 11  2  0
 11 12  1  0
 12 13  2  0
 13 14  1  0
 14 15  2  0
 15 16  1  0
  4 17  1  0
  3 18  1  0
  6  2  1  0
 11  7  1  0
 15 10  1  0
  1 19  1  0
  1 20  1  0
  2 21  1  0
  3 22  1  0
  4 23  1  0
  5 24  1  0
  8 25  1  0
 13 26  1  0
 16 27  1  0
 16 28  1  0
 17 29  1  0
 18 30  1  0
M  RAD  1   1   2
M  END
$$$$

     RDKit          3D

 30 32  0  0  0  0  0  0  0  0999 V2000
  -11.9703   15.7844  -25.5492 C   0  0  0  0  0  3  0  0  0  0  0  0
  -11.8151   14.7221  -24.4996 C   0  0  0  0  0  0  0  0  0  0  0  0
  -13.2049   14.1562  -24.2249 C   0  0  0  0  0  0  0  0  0  0  0  0
  -12.8462   12.8835  -23.5209 C   0  0  0  0  0  0  0  0  0  0  0  0
  -11.5402   12.5254  -24.1970 C   0  0  0  0  0  0  0  0  0  0  0  0
  -11.1518   13.5911  -24.9594 O   0  0  0  0  0  0  0  0  0  0  0  0
  -11.7917   11.3667  -25.0314 N   0  0  0  0  0  0  0  0  0  0  0  0
  -12.9404   11.0696  -25.6656 C   0  0  0  0  0  0  0  0  0  0  0  0
  -12.7484    9.9138  -26.3262 N   0  0  0  0  0  0  0  0  0  0  0  0
  -11.4904    9.4986  -26.1025 C   0  0  0  0  0  0  0  0  0  0  0  0
  -10.8599   10.4094  -25.2789 C   0  0  0  0  0  0  0  0  0  0  0  0
   -9.5727   10.2480  -24.8826 N   0  0  0  0  0  0  0  0  0  0  0  0
   -8.9179    9.1597  -25.3208 C   0  0  0  0  0  0  0  0  0  0  0  0
   -9.5211    8.2588  -26.1276 N   0  0  0  0  0  0  0  0  0  0  0  0
  -10.7757    8.3854  -26.5334 C   0  0  0  0  0  0  0  0  0  0  0  0
  -11.4381    7.4550  -27.3819 N   0  0  0  0  0  0  0  0  0  0  0  0
  -12.5747   13.1629  -22.1951 O   0  0  0  0  0  0  0  0  0  0  0  0
  -13.9676   15.0174  -23.4590 O   0  0  0  0  0  0  0  0  0  0  0  0
  -12.8395   16.4301  -25.2336 H   0  0  0  0  0  0  0  0  0  0  0  0
  -11.0870   16.4321  -25.6416 H   0  0  0  0  0  0  0  0  0  0  0  0
  -11.3956   15.0778  -23.5520 H   0  0  0  0  0  0  0  0  0  0  0  0
  -13.6896   14.0271  -25.1937 H   0  0  0  0  0  0  0  0  0  0  0  0
  -13.6060   12.0866  -23.6398 H   0  0  0  0  0  0  0  0  0  0  0  0
  -10.7739   12.2409  -23.4194 H   0  0  0  0  0  0  0  0  0  0  0  0
  -13.8531   11.6735  -25.6354 H   0  0  0  0  0  0  0  0  0  0  0  0
   -7.8901    8.9422  -25.0607 H   0  0  0  0  0  0  0  0  0  0  0  0
  -12.4273    7.2071  -27.2434 H   0  0  0  0  0  0  0  0  0  0  0  0
  -10.9118    7.0119  -28.1636 H   0  0  0  0  0  0  0  0  0  0  0  0
  -12.7792   14.0671  -21.9091 H   0  0  0  0  0  0  0  0  0  0  0  0
  -13.4520   15.6829  -22.9580 H   0  0  0  0  0  0  0  0  0  0  0  0
  1  2  1  0
  2  3  1  0
  3  4  1  0
  4  5  1  0
  5  6  1  0
  5  7  1  0
  7  8  1  0
  8  9  2  0
  9 10  1  0
 10 11  2  0
 11 12  1  0
 12 13  2  0
 13 14  1  0
 14 15  2  0
 15 16  1  0
  4 17  1  0
  3 18  1  0
  6  2  1  0
 11  7  1  0
 15 10  1  0
  1 19  1  0
  1 20  1  0
  2 21  1  0
  3 22  1  0
  4 23  1  0
  5 24  1  0
  8 25  1  0
 13 26  1  0
 16 27  1  0
 16 28  1  0
 17 29  1  0
 18 30  1  0
M  RAD  1   1   2
M  END
$$$$

     RDKit          3D

 30 32  0  0  0  0  0  0  0  0999 V2000
  -12.2651   14.1327  -21.7447 C   0  0  0  0  0  3  0  0  0  0  0  0
  -12.7900   13.7658  -23.0801 C   0  0  0  0  0  0  0  0  0  0  0  0
  -12.4335   14.7936  -24.1179 C   0  0  0  0  0  0  0  0  0  0  0  0
  -12.0177   13.9225  -25.3083 C   0  0  0  0  0  0  0  0  0  0  0  0
  -12.6227   12.5814  -24.8755 C   0  0  0  0  0  0  0  0  0  0  0  0
  -12.2788   12.5360  -23.5520 O   0  0  0  0  0  0  0  0  0  0  0  0
  -12.0777   11.5295  -25.6739 N   0  0  0  0  0  0  0  0  0  0  0  0
  -12.1265   11.5139  -27.0175 C   0  0  0  0  0  0  0  0  0  0  0  0
  -11.5194   10.3774  -27.4524 N   0  0  0  0  0  0  0  0  0  0  0  0
  -11.0955    9.6904  -26.3853 C   0  0  0  0  0  0  0  0  0  0  0  0
  -11.4565   10.4335  -25.2600 C   0  0  0  0  0  0  0  0  0  0  0  0
  -11.1235    9.9206  -24.0751 N   0  0  0  0  0  0  0  0  0  0  0  0
  -10.4732    8.7481  -23.9641 C   0  0  0  0  0  0  0  0  0  0  0  0
  -10.1229    8.0262  -25.0669 N   0  0  0  0  0  0  0  0  0  0  0  0
  -10.4320    8.4931  -26.2829 C   0  0  0  0  0  0  0  0  0  0  0  0
  -10.1029    7.8024  -27.4808 N   0  0  0  0  0  0  0  0  0  0  0  0
  -10.6316   13.8243  -25.3789 O   0  0  0  0  0  0  0  0  0  0  0  0
  -13.5573   15.5165  -24.5396 O   0  0  0  0  0  0  0  0  0  0  0  0
  -11.1980   14.3151  -21.6738 H   0  0  0  0  0  0  0  0  0  0  0  0
  -12.7453   13.6725  -20.8875 H   0  0  0  0  0  0  0  0  0  0  0  0
  -13.8878   13.6999  -23.0305 H   0  0  0  0  0  0  0  0  0  0  0  0
  -11.6412   15.4861  -23.8144 H   0  0  0  0  0  0  0  0  0  0  0  0
  -12.4596   14.2727  -26.2501 H   0  0  0  0  0  0  0  0  0  0  0  0
  -13.7192   12.6676  -24.9496 H   0  0  0  0  0  0  0  0  0  0  0  0
  -12.5480   12.2254  -27.7139 H   0  0  0  0  0  0  0  0  0  0  0  0
  -10.1887    8.3047  -23.0210 H   0  0  0  0  0  0  0  0  0  0  0  0
   -9.1548    7.4328  -27.5965 H   0  0  0  0  0  0  0  0  0  0  0  0
  -10.8197    7.6802  -28.2201 H   0  0  0  0  0  0  0  0  0  0  0  0
  -10.1713   14.5824  -24.9271 H   0  0  0  0  0  0  0  0  0  0  0  0
  -13.2230   16.3816  -24.8852 H   0  0  0  0  0  0  0  0  0  0  0  0
  1  2  1  0
  2  3  1  0
  3  4  1  0
  4  5  1  0
  5  6  1  0
  5  7  1  0
  7  8  1  0
  8  9  2  0
  9 10  1  0
 10 11  2  0
 11 12  1  0
 12 13  2  0
 13 14  1  0
 14 15  2  0
 15 16  1  0
  4 17  1  0
  3 18  1  0
  6  2  1  0
 11  7  1  0
 15 10  1  0
  1 19  1  0
  1 20  1  0
  2 21  1  0
  3 22  1  0
  4 23  1  0
  5 24  1  0
  8 25  1  0
 13 26  1  0
 16 27  1  0
 16 28  1  0
 17 29  1  0
 18 30  1  0
M  RAD  1   1   2
M  END
$$$$

     RDKit          3D

 30 32  0  0  0  0  0  0  0  0999 V2000
  -14.6437   13.5937  -23.7785 C   0  0  0  0  0  3  0  0  0  0  0  0
  -13.3340   14.2684  -24.2052 C   0  0  0  0  0  0  0  0  0  0  0  0
  -12.2399   13.9844  -23.2420 C   0  0  0  0  0  0  0  0  0  0  0  0
  -11.3381   13.0462  -23.9885 C   0  0  0  0  0  0  0  0  0  0  0  0
  -11.8940   13.0274  -25.3832 C   0  0  0  0  0  0  0  0  0  0  0  0
  -13.0110   13.7854  -25.4344 O   0  0  0  0  0  0  0  0  0  0  0  0
  -12.0970   11.6305  -25.7427 N   0  0  0  0  0  0  0  0  0  0  0  0
  -13.1742   11.0150  -26.2123 C   0  0  0  0  0  0  0  0  0  0  0  0
  -12.8896    9.6980  -26.4012 N   0  0  0  0  0  0  0  0  0  0  0  0
  -11.6143    9.5158  -26.0380 C   0  0  0  0  0  0  0  0  0  0  0  0
  -11.0946   10.7311  -25.6171 C   0  0  0  0  0  0  0  0  0  0  0  0
   -9.8167   10.8044  -25.1990 N   0  0  0  0  0  0  0  0  0  0  0  0
   -9.0014    9.7530  -25.1646 C   0  0  0  0  0  0  0  0  0  0  0  0
   -9.4767    8.5671  -25.5652 N   0  0  0  0  0  0  0  0  0  0  0  0
  -10.7509    8.4289  -25.9959 C   0  0  0  0  0  0  0  0  0  0  0  0
  -11.2254    7.1691  -26.4119 N   0  0  0  0  0  0  0  0  0  0  0  0
  -10.0150   13.5046  -24.0147 O   0  0  0  0  0  0  0  0  0  0  0  0
  -11.5105   15.0850  -22.8617 O   0  0  0  0  0  0  0  0  0  0  0  0
  -15.4480   14.1262  -24.3654 H   0  0  0  0  0  0  0  0  0  0  0  0
  -14.6539   12.5387  -24.1803 H   0  0  0  0  0  0  0  0  0  0  0  0
  -13.4926   15.3680  -24.2385 H   0  0  0  0  0  0  0  0  0  0  0  0
  -12.6113   13.4743  -22.3271 H   0  0  0  0  0  0  0  0  0  0  0  0
  -11.3204   12.0471  -23.5061 H   0  0  0  0  0  0  0  0  0  0  0  0
  -11.1423   13.4183  -26.1158 H   0  0  0  0  0  0  0  0  0  0  0  0
  -14.1232   11.5220  -26.4040 H   0  0  0  0  0  0  0  0  0  0  0  0
   -7.9939    9.9105  -24.8138 H   0  0  0  0  0  0  0  0  0  0  0  0
  -10.9133    6.2884  -25.9575 H   0  0  0  0  0  0  0  0  0  0  0  0
  -11.9055    7.1210  -27.1939 H   0  0  0  0  0  0  0  0  0  0  0  0
   -9.8176   13.8620  -24.9112 H   0  0  0  0  0  0  0  0  0  0  0  0
  -10.7498   15.2302  -23.4644 H   0  0  0  0  0  0  0  0  0  0  0  0
  1  2  1  0
  2  3  1  0
  3  4  1  0
  4  5  1  0
  5  6  1  0
  5  7  1  0
  7  8  1  0
  8  9  2  0
  9 10  1  0
 10 11  2  0
 11 12  1  0
 12 13  2  0
 13 14  1  0
 14 15  2  0
 15 16  1  0
  4 17  1  0
  3 18  1  0
  6  2  1  0
 11  7  1  0
 15 10  1  0
  1 19  1  0
  1 20  1  0
  2 21  1  0
  3 22  1  0
  4 23  1  0
  5 24  1  0
  8 25  1  0
 13 26  1  0
 16 27  1  0
 16 28  1  0
 17 29  1  0
 18 30  1  0
M  RAD  1   1   2
M  END
$$$$

     RDKit          3D

 30 32  0  0  0  0  0  0  0  0999 V2000
  -13.4737   15.1266  -25.3851 C   0  0  0  0  0  3  0  0  0  0  0  0
  -13.4396   14.3019  -24.1042 C   0  0  0  0  0  0  0  0  0  0  0  0
  -12.0600   14.4466  -23.5257 C   0  0  0  0  0  0  0  0  0  0  0  0
  -11.3837   13.2032  -24.1220 C   0  0  0  0  0  0  0  0  0  0  0  0
  -12.5627   12.2445  -24.0461 C   0  0  0  0  0  0  0  0  0  0  0  0
  -13.6470   12.9902  -24.4216 O   0  0  0  0  0  0  0  0  0  0  0  0
  -12.3701   11.0644  -24.8334 N   0  0  0  0  0  0  0  0  0  0  0  0
  -13.3864   10.2782  -25.2593 C   0  0  0  0  0  0  0  0  0  0  0  0
  -12.8444    9.2737  -25.9621 N   0  0  0  0  0  0  0  0  0  0  0  0
  -11.5091    9.4056  -25.9909 C   0  0  0  0  0  0  0  0  0  0  0  0
  -11.2017   10.5403  -25.2763 C   0  0  0  0  0  0  0  0  0  0  0  0
   -9.9155   10.9091  -25.1463 N   0  0  0  0  0  0  0  0  0  0  0  0
   -8.9622   10.1617  -25.7165 C   0  0  0  0  0  0  0  0  0  0  0  0
   -9.2196    9.0548  -26.4173 N   0  0  0  0  0  0  0  0  0  0  0  0
  -10.5132    8.6701  -26.5571 C   0  0  0  0  0  0  0  0  0  0  0  0
  -10.8723    7.5129  -27.2820 N   0  0  0  0  0  0  0  0  0  0  0  0
  -10.3391   12.8196  -23.3156 O   0  0  0  0  0  0  0  0  0  0  0  0
  -11.4267   15.6047  -23.8944 O   0  0  0  0  0  0  0  0  0  0  0  0
  -13.9467   14.6016  -26.2187 H   0  0  0  0  0  0  0  0  0  0  0  0
  -13.9646   16.0979  -25.1734 H   0  0  0  0  0  0  0  0  0  0  0  0
  -14.2345   14.6387  -23.4013 H   0  0  0  0  0  0  0  0  0  0  0  0
  -12.1100   14.2874  -22.4311 H   0  0  0  0  0  0  0  0  0  0  0  0
  -11.0973   13.3821  -25.1806 H   0  0  0  0  0  0  0  0  0  0  0  0
  -12.6844   11.9765  -22.9723 H   0  0  0  0  0  0  0  0  0  0  0  0
  -14.4439   10.3808  -25.1012 H   0  0  0  0  0  0  0  0  0  0  0  0
   -7.9180   10.4490  -25.6189 H   0  0  0  0  0  0  0  0  0  0  0  0
  -11.0924    6.6458  -26.7735 H   0  0  0  0  0  0  0  0  0  0  0  0
  -10.9125    7.5394  -28.3096 H   0  0  0  0  0  0  0  0  0  0  0  0
   -9.7383   13.6137  -23.2168 H   0  0  0  0  0  0  0  0  0  0  0  0
  -11.4937   16.2535  -23.1337 H   0  0  0  0  0  0  0  0  0  0  0  0
  1  2  1  0
  2  3  1  0
  3  4  1  0
  4  5  1  0
  5  6  1  0
  5  7  1  0
  7  8  1  0
  8  9  2  0
  9 10  1  0
 10 11  2  0
 11 12  1  0
 12 13  2  0
 13 14  1  0
 14 15  2  0
 15 16  1  0
  4 17  1  0
  3 18  1  0
  6  2  1  0
 11  7  1  0
 15 10  1  0
  1 19  1  0
  1 20  1  0
  2 21  1  0
  3 22  1  0
  4 23  1  0
  5 24  1  0
  8 25  1  0
 13 26  1  0
 16 27  1  0
 16 28  1  0
 17 29  1  0
 18 30  1  0
M  RAD  1   1   2
M  END
$$$$

     RDKit          3D

 30 32  0  0  0  0  0  0  0  0999 V2000
  -14.4285   14.8756  -23.2362 C   0  0  0  0  0  3  0  0  0  0  0  0
  -13.3641   14.4031  -24.1986 C   0  0  0  0  0  0  0  0  0  0  0  0
  -11.9688   14.5024  -23.5886 C   0  0  0  0  0  0  0  0  0  0  0  0
  -11.2636   13.2948  -24.1754 C   0  0  0  0  0  0  0  0  0  0  0  0
  -12.2695   12.8264  -25.1824 C   0  0  0  0  0  0  0  0  0  0  0  0
  -13.4811   13.0422  -24.4861 O   0  0  0  0  0  0  0  0  0  0  0  0
  -12.1204   11.4775  -25.5976 N   0  0  0  0  0  0  0  0  0  0  0  0
  -13.1602   10.7569  -26.1009 C   0  0  0  0  0  0  0  0  0  0  0  0
  -12.7275    9.5227  -26.4064 N   0  0  0  0  0  0  0  0  0  0  0  0
  -11.4298    9.4397  -26.1080 C   0  0  0  0  0  0  0  0  0  0  0  0
  -11.0524   10.6626  -25.6027 C   0  0  0  0  0  0  0  0  0  0  0  0
   -9.7777   10.8200  -25.2294 N   0  0  0  0  0  0  0  0  0  0  0  0
   -8.9205    9.7937  -25.3583 C   0  0  0  0  0  0  0  0  0  0  0  0
   -9.2886    8.6026  -25.8506 N   0  0  0  0  0  0  0  0  0  0  0  0
  -10.5544    8.3885  -26.2407 C   0  0  0  0  0  0  0  0  0  0  0  0
  -10.9204    7.1225  -26.7576 N   0  0  0  0  0  0  0  0  0  0  0  0
  -11.0315   12.3794  -23.1646 O   0  0  0  0  0  0  0  0  0  0  0  0
  -11.3679   15.6975  -23.9720 O   0  0  0  0  0  0  0  0  0  0  0  0
  -14.4756   14.1937  -22.3635 H   0  0  0  0  0  0  0  0  0  0  0  0
  -15.3637   14.9725  -23.7902 H   0  0  0  0  0  0  0  0  0  0  0  0
  -13.3665   15.0030  -25.1153 H   0  0  0  0  0  0  0  0  0  0  0  0
  -12.0185   14.4678  -22.4806 H   0  0  0  0  0  0  0  0  0  0  0  0
  -10.3298   13.6084  -24.6839 H   0  0  0  0  0  0  0  0  0  0  0  0
  -12.2597   13.5392  -26.0314 H   0  0  0  0  0  0  0  0  0  0  0  0
  -14.1852   11.0824  -26.2494 H   0  0  0  0  0  0  0  0  0  0  0  0
   -7.8962    9.9352  -25.0533 H   0  0  0  0  0  0  0  0  0  0  0  0
  -11.4833    7.0443  -27.6330 H   0  0  0  0  0  0  0  0  0  0  0  0
  -10.6535    6.2226  -26.3021 H   0  0  0  0  0  0  0  0  0  0  0  0
  -11.7432   12.4737  -22.4804 H   0  0  0  0  0  0  0  0  0  0  0  0
  -10.4916   15.7604  -23.5273 H   0  0  0  0  0  0  0  0  0  0  0  0
  1  2  1  0
  2  3  1  0
  3  4  1  0
  4  5  1  0
  5  6  1  0
  5  7  1  0
  7  8  1  0
  8  9  2  0
  9 10  1  0
 10 11  2  0
 11 12  1  0
 12 13  2  0
 13 14  1  0
 14 15  2  0
 15 16  1  0
  4 17  1  0
  3 18  1  0
  6  2  1  0
 11  7  1  0
 15 10  1  0
  1 19  1  0
  1 20  1  0
  2 21  1  0
  3 22  1  0
  4 23  1  0
  5 24  1  0
  8 25  1  0
 13 26  1  0
 16 27  1  0
 16 28  1  0
 17 29  1  0
 18 30  1  0
M  RAD  1   1   2
M  END
$$$$

     RDKit          3D

 30 32  0  0  0  0  0  0  0  0999 V2000
  -13.8450   13.7971  -22.5679 C   0  0  0  0  0  3  0  0  0  0  0  0
  -13.4428   14.2469  -23.9730 C   0  0  0  0  0  0  0  0  0  0  0  0
  -11.9788   14.6357  -23.9236 C   0  0  0  0  0  0  0  0  0  0  0  0
  -11.3599   13.3130  -24.3767 C   0  0  0  0  0  0  0  0  0  0  0  0
  -12.3746   12.9360  -25.4369 C   0  0  0  0  0  0  0  0  0  0  0  0
  -13.5663   13.1715  -24.8044 O   0  0  0  0  0  0  0  0  0  0  0  0
  -12.1890   11.5790  -25.8709 N   0  0  0  0  0  0  0  0  0  0  0  0
  -13.0113   10.9396  -26.7212 C   0  0  0  0  0  0  0  0  0  0  0  0
  -12.5681    9.6791  -26.9320 N   0  0  0  0  0  0  0  0  0  0  0  0
  -11.4517    9.4861  -26.2201 C   0  0  0  0  0  0  0  0  0  0  0  0
  -11.2279   10.6916  -25.5586 C   0  0  0  0  0  0  0  0  0  0  0  0
  -10.1635   10.7734  -24.7691 N   0  0  0  0  0  0  0  0  0  0  0  0
   -9.3026    9.7542  -24.5828 C   0  0  0  0  0  0  0  0  0  0  0  0
   -9.5404    8.6036  -25.2313 N   0  0  0  0  0  0  0  0  0  0  0  0
  -10.5857    8.4088  -26.0545 C   0  0  0  0  0  0  0  0  0  0  0  0
  -10.8205    7.1813  -26.7328 N   0  0  0  0  0  0  0  0  0  0  0  0
  -10.0945   13.4550  -24.8660 O   0  0  0  0  0  0  0  0  0  0  0  0
  -11.6044   14.9559  -22.6340 O   0  0  0  0  0  0  0  0  0  0  0  0
  -13.0292   13.9334  -21.8401 H   0  0  0  0  0  0  0  0  0  0  0  0
  -14.7595   14.3069  -22.2454 H   0  0  0  0  0  0  0  0  0  0  0  0
  -14.0778   15.0842  -24.3143 H   0  0  0  0  0  0  0  0  0  0  0  0
  -11.7602   15.4464  -24.6604 H   0  0  0  0  0  0  0  0  0  0  0  0
  -11.4549   12.6213  -23.5240 H   0  0  0  0  0  0  0  0  0  0  0  0
  -12.2332   13.6613  -26.2713 H   0  0  0  0  0  0  0  0  0  0  0  0
  -13.9076   11.3822  -27.1728 H   0  0  0  0  0  0  0  0  0  0  0  0
   -8.4396    9.8691  -23.9224 H   0  0  0  0  0  0  0  0  0  0  0  0
  -11.2959    7.1420  -27.6612 H   0  0  0  0  0  0  0  0  0  0  0  0
  -10.5227    6.2704  -26.3215 H   0  0  0  0  0  0  0  0  0  0  0  0
   -9.6403   14.1801  -24.3722 H   0  0  0  0  0  0  0  0  0  0  0  0
  -12.1698   15.7133  -22.3452 H   0  0  0  0  0  0  0  0  0  0  0  0
  1  2  1  0
  2  3  1  0
  3  4  1  0
  4  5  1  0
  5  6  1  0
  5  7  1  0
  7  8  1  0
  8  9  2  0
  9 10  1  0
 10 11  2  0
 11 12  1  0
 12 13  2  0
 13 14  1  0
 14 15  2  0
 15 16  1  0
  4 17  1  0
  3 18  1  0
  6  2  1  0
 11  7  1  0
 15 10  1  0
  1 19  1  0
  1 20  1  0
  2 21  1  0
  3 22  1  0
  4 23  1  0
  5 24  1  0
  8 25  1  0
 13 26  1  0
 16 27  1  0
 16 28  1  0
 17 29  1  0
 18 30  1  0
M  RAD  1   1   2
M  END
$$$$

     RDKit          3D

 30 32  0  0  0  0  0  0  0  0999 V2000
  -13.3803   14.1523  -22.0323 C   0  0  0  0  0  3  0  0  0  0  0  0
  -13.2774   14.0685  -23.5486 C   0  0  0  0  0  0  0  0  0  0  0  0
  -12.0243   14.7699  -24.0243 C   0  0  0  0  0  0  0  0  0  0  0  0
  -11.2472   13.5759  -24.6114 C   0  0  0  0  0  0  0  0  0  0  0  0
  -12.4388   12.7874  -25.1005 C   0  0  0  0  0  0  0  0  0  0  0  0
  -13.2174   12.7527  -23.9617 O   0  0  0  0  0  0  0  0  0  0  0  0
  -12.1472   11.5464  -25.7022 N   0  0  0  0  0  0  0  0  0  0  0  0
  -12.8512   11.0639  -26.7715 C   0  0  0  0  0  0  0  0  0  0  0  0
  -12.3708    9.8714  -27.1458 N   0  0  0  0  0  0  0  0  0  0  0  0
  -11.3666    9.5639  -26.3428 C   0  0  0  0  0  0  0  0  0  0  0  0
  -11.2312   10.6062  -25.4484 C   0  0  0  0  0  0  0  0  0  0  0  0
  -10.2819   10.5389  -24.5271 N   0  0  0  0  0  0  0  0  0  0  0  0
   -9.4761    9.4615  -24.4853 C   0  0  0  0  0  0  0  0  0  0  0  0
   -9.5968    8.4294  -25.3574 N   0  0  0  0  0  0  0  0  0  0  0  0
  -10.5491    8.4517  -26.3142 C   0  0  0  0  0  0  0  0  0  0  0  0
  -10.7141    7.3894  -27.2534 N   0  0  0  0  0  0  0  0  0  0  0  0
  -10.6082   12.9924  -23.5277 O   0  0  0  0  0  0  0  0  0  0  0  0
  -12.3483   15.5861  -25.1015 O   0  0  0  0  0  0  0  0  0  0  0  0
  -13.9090   15.0962  -21.7589 H   0  0  0  0  0  0  0  0  0  0  0  0
  -13.9242   13.2826  -21.6142 H   0  0  0  0  0  0  0  0  0  0  0  0
  -14.1812   14.5777  -23.9858 H   0  0  0  0  0  0  0  0  0  0  0  0
  -11.4712   15.2659  -23.2323 H   0  0  0  0  0  0  0  0  0  0  0  0
  -10.5861   13.9277  -25.3986 H   0  0  0  0  0  0  0  0  0  0  0  0
  -12.9734   13.4825  -25.8153 H   0  0  0  0  0  0  0  0  0  0  0  0
  -13.6858   11.5376  -27.2806 H   0  0  0  0  0  0  0  0  0  0  0  0
   -8.6934    9.3744  -23.7486 H   0  0  0  0  0  0  0  0  0  0  0  0
  -10.7066    6.3885  -26.9564 H   0  0  0  0  0  0  0  0  0  0  0  0
  -10.8429    7.6446  -28.2491 H   0  0  0  0  0  0  0  0  0  0  0  0
  -10.5317   13.5895  -22.7445 H   0  0  0  0  0  0  0  0  0  0  0  0
  -13.3134   15.4791  -25.3576 H   0  0  0  0  0  0  0  0  0  0  0  0
  1  2  1  0
  2  3  1  0
  3  4  1  0
  4  5  1  0
  5  6  1  0
  5  7  1  0
  7  8  1  0
  8  9  2  0
  9 10  1  0
 10 11  2  0
 11 12  1  0
 12 13  2  0
 13 14  1  0
 14 15  2  0
 15 16  1  0
  4 17  1  0
  3 18  1  0
  6  2  1  0
 11  7  1  0
 15 10  1  0
  1 19  1  0
  1 20  1  0
  2 21  1  0
  3 22  1  0
  4 23  1  0
  5 24  1  0
  8 25  1  0
 13 26  1  0
 16 27  1  0
 16 28  1  0
 17 29  1  0
 18 30  1  0
M  RAD  1   1   2
M  END
$$$$

     RDKit          3D

 30 32  0  0  0  0  0  0  0  0999 V2000
  -14.0922   15.4369  -24.4608 C   0  0  0  0  0  3  0  0  0  0  0  0
  -13.3508   14.3004  -23.7667 C   0  0  0  0  0  0  0  0  0  0  0  0
  -11.8678   14.5822  -23.6841 C   0  0  0  0  0  0  0  0  0  0  0  0
  -11.2756   13.3963  -24.4170 C   0  0  0  0  0  0  0  0  0  0  0  0
  -12.3932   12.3682  -24.2004 C   0  0  0  0  0  0  0  0  0  0  0  0
  -13.5083   13.1254  -24.4652 O   0  0  0  0  0  0  0  0  0  0  0  0
  -12.2457   11.2437  -25.0656 N   0  0  0  0  0  0  0  0  0  0  0  0
  -13.1805   10.7743  -25.9107 C   0  0  0  0  0  0  0  0  0  0  0  0
  -12.6674    9.6993  -26.5573 N   0  0  0  0  0  0  0  0  0  0  0  0
  -11.4067    9.4701  -26.1361 C   0  0  0  0  0  0  0  0  0  0  0  0
  -11.1677   10.4632  -25.1925 C   0  0  0  0  0  0  0  0  0  0  0  0
   -9.9505   10.4332  -24.6265 N   0  0  0  0  0  0  0  0  0  0  0  0
   -9.0160    9.5190  -24.9344 C   0  0  0  0  0  0  0  0  0  0  0  0
   -9.2732    8.5725  -25.8479 N   0  0  0  0  0  0  0  0  0  0  0  0
  -10.4463    8.5278  -26.4548 C   0  0  0  0  0  0  0  0  0  0  0  0
  -10.7013    7.5198  -27.4186 N   0  0  0  0  0  0  0  0  0  0  0  0
  -11.1337   13.6991  -25.7746 O   0  0  0  0  0  0  0  0  0  0  0  0
  -11.4499   14.4767  -22.3428 O   0  0  0  0  0  0  0  0  0  0  0  0
  -14.0834   15.3030  -25.5692 H   0  0  0  0  0  0  0  0  0  0  0  0
  -13.5377   16.3878  -24.2401 H   0  0  0  0  0  0  0  0  0  0  0  0
  -13.7667   14.1595  -22.7450 H   0  0  0  0  0  0  0  0  0  0  0  0
  -11.5944   15.5461  -24.1324 H   0  0  0  0  0  0  0  0  0  0  0  0
  -10.3282   13.0460  -23.9804 H   0  0  0  0  0  0  0  0  0  0  0  0
  -12.3824   12.1152  -23.1268 H   0  0  0  0  0  0  0  0  0  0  0  0
  -14.1758   11.1689  -26.0653 H   0  0  0  0  0  0  0  0  0  0  0  0
   -8.0674    9.6029  -24.4038 H   0  0  0  0  0  0  0  0  0  0  0  0
  -11.5656    6.9596  -27.3206 H   0  0  0  0  0  0  0  0  0  0  0  0
  -10.0723    7.3072  -28.2204 H   0  0  0  0  0  0  0  0  0  0  0  0
  -12.0247   13.7929  -26.1871 H   0  0  0  0  0  0  0  0  0  0  0  0
  -12.1140   13.8939  -21.8555 H   0  0  0  0  0  0  0  0  0  0  0  0
  1  2  1  0
  2  3  1  0
  3  4  1  0
  4  5  1  0
  5  6  1  0
  5  7  1  0
  7  8  1  0
  8  9  2  0
  9 10  1  0
 10 11  2  0
 11 12  1  0
 12 13  2  0
 13 14  1  0
 14 15  2  0
 15 16  1  0
  4 17  1  0
  3 18  1  0
  6  2  1  0
 11  7  1  0
 15 10  1  0
  1 19  1  0
  1 20  1  0
  2 21  1  0
  3 22  1  0
  4 23  1  0
  5 24  1  0
  8 25  1  0
 13 26  1  0
 16 27  1  0
 16 28  1  0
 17 29  1  0
 18 30  1  0
M  RAD  1   1   2
M  END
$$$$

     RDKit          3D

 30 32  0  0  0  0  0  0  0  0999 V2000
  -13.3061   14.0727  -21.9251 C   0  0  0  0  0  3  0  0  0  0  0  0
  -12.2868   13.7780  -22.9904 C   0  0  0  0  0  0  0  0  0  0  0  0
  -12.5065   14.6988  -24.1359 C   0  0  0  0  0  0  0  0  0  0  0  0
  -12.7186   13.7883  -25.3159 C   0  0  0  0  0  0  0  0  0  0  0  0
  -12.8453   12.4314  -24.6898 C   0  0  0  0  0  0  0  0  0  0  0  0
  -12.2942   12.4876  -23.4298 O   0  0  0  0  0  0  0  0  0  0  0  0
  -12.2044   11.4651  -25.5575 N   0  0  0  0  0  0  0  0  0  0  0  0
  -12.2612   11.5231  -26.8988 C   0  0  0  0  0  0  0  0  0  0  0  0
  -11.5628   10.4792  -27.3795 N   0  0  0  0  0  0  0  0  0  0  0  0
  -11.0470    9.7345  -26.3747 C   0  0  0  0  0  0  0  0  0  0  0  0
  -11.4746   10.3906  -25.2135 C   0  0  0  0  0  0  0  0  0  0  0  0
  -11.1011    9.8596  -24.0591 N   0  0  0  0  0  0  0  0  0  0  0  0
  -10.3561    8.7578  -23.9577 C   0  0  0  0  0  0  0  0  0  0  0  0
   -9.9449    8.1267  -25.0936 N   0  0  0  0  0  0  0  0  0  0  0  0
  -10.2769    8.5951  -26.3019 C   0  0  0  0  0  0  0  0  0  0  0  0
   -9.8598    7.9541  -27.4832 N   0  0  0  0  0  0  0  0  0  0  0  0
  -11.6406   13.9161  -26.1607 O   0  0  0  0  0  0  0  0  0  0  0  0
  -11.4400   15.5492  -24.2890 O   0  0  0  0  0  0  0  0  0  0  0  0
  -14.2190   14.5482  -22.3110 H   0  0  0  0  0  0  0  0  0  0  0  0
  -13.5064   13.2086  -21.2667 H   0  0  0  0  0  0  0  0  0  0  0  0
  -11.2745   13.9711  -22.5293 H   0  0  0  0  0  0  0  0  0  0  0  0
  -13.4561   15.2986  -24.0221 H   0  0  0  0  0  0  0  0  0  0  0  0
  -13.6489   14.0419  -25.8892 H   0  0  0  0  0  0  0  0  0  0  0  0
  -13.9022   12.1085  -24.5762 H   0  0  0  0  0  0  0  0  0  0  0  0
  -12.7557   12.2433  -27.5425 H   0  0  0  0  0  0  0  0  0  0  0  0
  -10.0366    8.3025  -23.0327 H   0  0  0  0  0  0  0  0  0  0  0  0
   -8.9045    8.0968  -27.8536 H   0  0  0  0  0  0  0  0  0  0  0  0
  -10.5146    7.3328  -27.9884 H   0  0  0  0  0  0  0  0  0  0  0  0
  -11.8198   14.5900  -26.8861 H   0  0  0  0  0  0  0  0  0  0  0  0
  -11.3391   15.7661  -25.2329 H   0  0  0  0  0  0  0  0  0  0  0  0
  1  2  1  0
  2  3  1  0
  3  4  1  0
  4  5  1  0
  5  6  1  0
  5  7  1  0
  7  8  1  0
  8  9  2  0
  9 10  1  0
 10 11  2  0
 11 12  1  0
 12 13  2  0
 13 14  1  0
 14 15  2  0
 15 16  1  0
  4 17  1  0
  3 18  1  0
  6  2  1  0
 11  7  1  0
 15 10  1  0
  1 19  1  0
  1 20  1  0
  2 21  1  0
  3 22  1  0
  4 23  1  0
  5 24  1  0
  8 25  1  0
 13 26  1  0
 16 27  1  0
 16 28  1  0
 17 29  1  0
 18 30  1  0
M  RAD  1   1   2
M  END
$$$$

     RDKit          3D

 30 32  0  0  0  0  0  0  0  0999 V2000
  -13.0212   13.9438  -21.8919 C   0  0  0  0  0  3  0  0  0  0  0  0
  -12.0373   13.9615  -23.0367 C   0  0  0  0  0  0  0  0  0  0  0  0
  -12.5366   14.7851  -24.2043 C   0  0  0  0  0  0  0  0  0  0  0  0
  -12.0528   13.9720  -25.3871 C   0  0  0  0  0  0  0  0  0  0  0  0
  -11.1593   12.9489  -24.7244 C   0  0  0  0  0  0  0  0  0  0  0  0
  -11.8103   12.6843  -23.5458 O   0  0  0  0  0  0  0  0  0  0  0  0
  -11.0734   11.8123  -25.6070 N   0  0  0  0  0  0  0  0  0  0  0  0
  -11.0479   11.8826  -26.9519 C   0  0  0  0  0  0  0  0  0  0  0  0
  -10.9636   10.6311  -27.4560 N   0  0  0  0  0  0  0  0  0  0  0  0
  -10.9382    9.7982  -26.4011 C   0  0  0  0  0  0  0  0  0  0  0  0
  -11.0070   10.5376  -25.2386 C   0  0  0  0  0  0  0  0  0  0  0  0
  -11.0001    9.9580  -24.0193 N   0  0  0  0  0  0  0  0  0  0  0  0
  -10.9245    8.6203  -23.9008 C   0  0  0  0  0  0  0  0  0  0  0  0
  -10.8575    7.9011  -25.0339 N   0  0  0  0  0  0  0  0  0  0  0  0
  -10.8609    8.4249  -26.2673 C   0  0  0  0  0  0  0  0  0  0  0  0
  -10.7905    7.6674  -27.4483 N   0  0  0  0  0  0  0  0  0  0  0  0
  -13.1155   13.2862  -25.9869 O   0  0  0  0  0  0  0  0  0  0  0  0
  -13.9304   14.7925  -24.1548 O   0  0  0  0  0  0  0  0  0  0  0  0
  -13.4894   14.9582  -21.8656 H   0  0  0  0  0  0  0  0  0  0  0  0
  -13.7962   13.1653  -22.1118 H   0  0  0  0  0  0  0  0  0  0  0  0
  -11.0784   14.3848  -22.7072 H   0  0  0  0  0  0  0  0  0  0  0  0
  -12.0975   15.7947  -24.2372 H   0  0  0  0  0  0  0  0  0  0  0  0
  -11.4863   14.5893  -26.1113 H   0  0  0  0  0  0  0  0  0  0  0  0
  -10.1399   13.3225  -24.5514 H   0  0  0  0  0  0  0  0  0  0  0  0
  -11.0883   12.7940  -27.5334 H   0  0  0  0  0  0  0  0  0  0  0  0
  -10.9179    8.1353  -22.9131 H   0  0  0  0  0  0  0  0  0  0  0  0
   -9.8762    7.3632  -27.8432 H   0  0  0  0  0  0  0  0  0  0  0  0
  -11.6451    7.3828  -27.9708 H   0  0  0  0  0  0  0  0  0  0  0  0
  -13.1978   12.3644  -25.5860 H   0  0  0  0  0  0  0  0  0  0  0  0
  -14.2211   13.9156  -24.5374 H   0  0  0  0  0  0  0  0  0  0  0  0
  1  2  1  0
  2  3  1  0
  3  4  1  0
  4  5  1  0
  5  6  1  0
  5  7  1  0
  7  8  1  0
  8  9  2  0
  9 10  1  0
 10 11  2  0
 11 12  1  0
 12 13  2  0
 13 14  1  0
 14 15  2  0
 15 16  1  0
  4 17  1  0
  3 18  1  0
  6  2  1  0
 11  7  1  0
 15 10  1  0
  1 19  1  0
  1 20  1  0
  2 21  1  0
  3 22  1  0
  4 23  1  0
  5 24  1  0
  8 25  1  0
 13 26  1  0
 16 27  1  0
 16 28  1  0
 17 29  1  0
 18 30  1  0
M  RAD  1   1   2
M  END
$$$$

     RDKit          3D

 30 32  0  0  0  0  0  0  0  0999 V2000
  -14.5169   14.2340  -23.1027 C   0  0  0  0  0  3  0  0  0  0  0  0
  -13.4235   14.4434  -24.1592 C   0  0  0  0  0  0  0  0  0  0  0  0
  -12.1049   14.4402  -23.4237 C   0  0  0  0  0  0  0  0  0  0  0  0
  -11.6237   13.0108  -23.7158 C   0  0  0  0  0  0  0  0  0  0  0  0
  -12.1617   12.8660  -25.1195 C   0  0  0  0  0  0  0  0  0  0  0  0
  -13.4531   13.3525  -24.9863 O   0  0  0  0  0  0  0  0  0  0  0  0
  -12.1542   11.5315  -25.6096 N   0  0  0  0  0  0  0  0  0  0  0  0
  -13.1507   10.8722  -26.1997 C   0  0  0  0  0  0  0  0  0  0  0  0
  -12.7546    9.6170  -26.5253 N   0  0  0  0  0  0  0  0  0  0  0  0
  -11.4734    9.4782  -26.1308 C   0  0  0  0  0  0  0  0  0  0  0  0
  -11.1138   10.6805  -25.5618 C   0  0  0  0  0  0  0  0  0  0  0  0
   -9.8511   10.7751  -25.0876 N   0  0  0  0  0  0  0  0  0  0  0  0
   -8.9649    9.7668  -25.1515 C   0  0  0  0  0  0  0  0  0  0  0  0
   -9.3460    8.6107  -25.7109 N   0  0  0  0  0  0  0  0  0  0  0  0
  -10.6019    8.4259  -26.2161 C   0  0  0  0  0  0  0  0  0  0  0  0
  -10.9773    7.1941  -26.8015 N   0  0  0  0  0  0  0  0  0  0  0  0
  -10.2364   13.0121  -23.6677 O   0  0  0  0  0  0  0  0  0  0  0  0
  -11.2190   15.2967  -24.0864 O   0  0  0  0  0  0  0  0  0  0  0  0
  -15.0865   15.1726  -22.9370 H   0  0  0  0  0  0  0  0  0  0  0  0
  -14.0905   13.9259  -22.1371 H   0  0  0  0  0  0  0  0  0  0  0  0
  -13.6171   15.4033  -24.6853 H   0  0  0  0  0  0  0  0  0  0  0  0
  -12.1849   14.6428  -22.3591 H   0  0  0  0  0  0  0  0  0  0  0  0
  -12.0957   12.3488  -22.9872 H   0  0  0  0  0  0  0  0  0  0  0  0
  -11.6057   13.5845  -25.7514 H   0  0  0  0  0  0  0  0  0  0  0  0
  -14.1307   11.2976  -26.3836 H   0  0  0  0  0  0  0  0  0  0  0  0
   -7.9426    9.8838  -24.7527 H   0  0  0  0  0  0  0  0  0  0  0  0
  -11.2423    7.1637  -27.7939 H   0  0  0  0  0  0  0  0  0  0  0  0
  -10.9826    6.3388  -26.2311 H   0  0  0  0  0  0  0  0  0  0  0  0
   -9.9438   12.7263  -22.7547 H   0  0  0  0  0  0  0  0  0  0  0  0
  -11.6775   15.7771  -24.8467 H   0  0  0  0  0  0  0  0  0  0  0  0
  1  2  1  0
  2  3  1  0
  3  4  1  0
  4  5  1  0
  5  6  1  0
  5  7  1  0
  7  8  1  0
  8  9  2  0
  9 10  1  0
 10 11  2  0
 11 12  1  0
 12 13  2  0
 13 14  1  0
 14 15  2  0
 15 16  1  0
  4 17  1  0
  3 18  1  0
  6  2  1  0
 11  7  1  0
 15 10  1  0
  1 19  1  0
  1 20  1  0
  2 21  1  0
  3 22  1  0
  4 23  1  0
  5 24  1  0
  8 25  1  0
 13 26  1  0
 16 27  1  0
 16 28  1  0
 17 29  1  0
 18 30  1  0
M  RAD  1   1   2
M  END
$$$$

     RDKit          3D

 30 32  0  0  0  0  0  0  0  0999 V2000
  -12.9984   16.0261  -25.2153 C   0  0  0  0  0  3  0  0  0  0  0  0
  -12.8822   14.5422  -24.8894 C   0  0  0  0  0  0  0  0  0  0  0  0
  -12.6576   14.3570  -23.4204 C   0  0  0  0  0  0  0  0  0  0  0  0
  -11.7128   13.1966  -23.3645 C   0  0  0  0  0  0  0  0  0  0  0  0
  -11.2967   12.9661  -24.7910 C   0  0  0  0  0  0  0  0  0  0  0  0
  -11.8560   13.9392  -25.5713 O   0  0  0  0  0  0  0  0  0  0  0  0
  -11.5885   11.6182  -25.2306 N   0  0  0  0  0  0  0  0  0  0  0  0
  -12.8065   11.1394  -25.4307 C   0  0  0  0  0  0  0  0  0  0  0  0
  -12.7466    9.8618  -25.8342 N   0  0  0  0  0  0  0  0  0  0  0  0
  -11.4547    9.4855  -25.9028 C   0  0  0  0  0  0  0  0  0  0  0  0
  -10.7347   10.6136  -25.5161 C   0  0  0  0  0  0  0  0  0  0  0  0
   -9.4014   10.5335  -25.4891 N   0  0  0  0  0  0  0  0  0  0  0  0
   -8.7798    9.3798  -25.8311 C   0  0  0  0  0  0  0  0  0  0  0  0
   -9.4870    8.2793  -26.2085 N   0  0  0  0  0  0  0  0  0  0  0  0
  -10.8187    8.3085  -26.2516 C   0  0  0  0  0  0  0  0  0  0  0  0
  -11.6014    7.1939  -26.6365 N   0  0  0  0  0  0  0  0  0  0  0  0
  -12.4065   12.1035  -22.8365 O   0  0  0  0  0  0  0  0  0  0  0  0
  -13.8975   14.0639  -22.8364 O   0  0  0  0  0  0  0  0  0  0  0  0
  -13.9530   16.2815  -25.6948 H   0  0  0  0  0  0  0  0  0  0  0  0
  -12.9250   16.6080  -24.2765 H   0  0  0  0  0  0  0  0  0  0  0  0
  -13.8420   14.0796  -25.2247 H   0  0  0  0  0  0  0  0  0  0  0  0
  -12.2022   15.2345  -22.9221 H   0  0  0  0  0  0  0  0  0  0  0  0
  -10.8175   13.4114  -22.7380 H   0  0  0  0  0  0  0  0  0  0  0  0
  -10.1760   13.0822  -24.8741 H   0  0  0  0  0  0  0  0  0  0  0  0
  -13.7529   11.6673  -25.3003 H   0  0  0  0  0  0  0  0  0  0  0  0
   -7.6992    9.2718  -25.8228 H   0  0  0  0  0  0  0  0  0  0  0  0
  -11.5605    6.3385  -26.0090 H   0  0  0  0  0  0  0  0  0  0  0  0
  -12.1927    7.1843  -27.4809 H   0  0  0  0  0  0  0  0  0  0  0  0
  -11.8239   11.3457  -22.6386 H   0  0  0  0  0  0  0  0  0  0  0  0
  -13.7409   13.6423  -21.9563 H   0  0  0  0  0  0  0  0  0  0  0  0
  1  2  1  0
  2  3  1  0
  3  4  1  0
  4  5  1  0
  5  6  1  0
  5  7  1  0
  7  8  1  0
  8  9  2  0
  9 10  1  0
 10 11  2  0
 11 12  1  0
 12 13  2  0
 13 14  1  0
 14 15  2  0
 15 16  1  0
  4 17  1  0
  3 18  1  0
  6  2  1  0
 11  7  1  0
 15 10  1  0
  1 19  1  0
  1 20  1  0
  2 21  1  0
  3 22  1  0
  4 23  1  0
  5 24  1  0
  8 25  1  0
 13 26  1  0
 16 27  1  0
 16 28  1  0
 17 29  1  0
 18 30  1  0
M  RAD  1   1   2
M  END
$$$$

     RDKit          3D

 30 32  0  0  0  0  0  0  0  0999 V2000
  -12.9171   13.7344  -21.7664 C   0  0  0  0  0  3  0  0  0  0  0  0
  -13.0335   13.4605  -23.2309 C   0  0  0  0  0  0  0  0  0  0  0  0
  -12.6309   14.6932  -23.9998 C   0  0  0  0  0  0  0  0  0  0  0  0
  -12.0706   14.0404  -25.2721 C   0  0  0  0  0  0  0  0  0  0  0  0
  -11.4561   12.8026  -24.6758 C   0  0  0  0  0  0  0  0  0  0  0  0
  -12.1750   12.4468  -23.5705 O   0  0  0  0  0  0  0  0  0  0  0  0
  -11.2955   11.7391  -25.6303 N   0  0  0  0  0  0  0  0  0  0  0  0
  -11.2702   11.7440  -26.9551 C   0  0  0  0  0  0  0  0  0  0  0  0
  -11.0951   10.5052  -27.4607 N   0  0  0  0  0  0  0  0  0  0  0  0
  -11.0050    9.6729  -26.4007 C   0  0  0  0  0  0  0  0  0  0  0  0
  -11.1292   10.4372  -25.2629 C   0  0  0  0  0  0  0  0  0  0  0  0
  -11.0744    9.8488  -24.0552 N   0  0  0  0  0  0  0  0  0  0  0  0
  -10.8991    8.5191  -23.9578 C   0  0  0  0  0  0  0  0  0  0  0  0
  -10.7784    7.7781  -25.0723 N   0  0  0  0  0  0  0  0  0  0  0  0
  -10.8240    8.3038  -26.3226 C   0  0  0  0  0  0  0  0  0  0  0  0
  -10.6938    7.4973  -27.4777 N   0  0  0  0  0  0  0  0  0  0  0  0
  -11.1008   14.8514  -25.8553 O   0  0  0  0  0  0  0  0  0  0  0  0
  -13.6784   15.5331  -24.2901 O   0  0  0  0  0  0  0  0  0  0  0  0
  -13.6840   13.2332  -21.1474 H   0  0  0  0  0  0  0  0  0  0  0  0
  -12.7829   14.8056  -21.5236 H   0  0  0  0  0  0  0  0  0  0  0  0
  -14.0700   13.2029  -23.5448 H   0  0  0  0  0  0  0  0  0  0  0  0
  -11.8000   15.1711  -23.4476 H   0  0  0  0  0  0  0  0  0  0  0  0
  -12.9098   13.8183  -25.9498 H   0  0  0  0  0  0  0  0  0  0  0  0
  -10.4280   13.1061  -24.3188 H   0  0  0  0  0  0  0  0  0  0  0  0
  -11.3824   12.6715  -27.5381 H   0  0  0  0  0  0  0  0  0  0  0  0
  -10.8526    8.0260  -22.9731 H   0  0  0  0  0  0  0  0  0  0  0  0
  -10.0319    7.7701  -28.2166 H   0  0  0  0  0  0  0  0  0  0  0  0
  -11.2675    6.6447  -27.5602 H   0  0  0  0  0  0  0  0  0  0  0  0
  -10.9050   15.5769  -25.2082 H   0  0  0  0  0  0  0  0  0  0  0  0
  -13.2898   16.4371  -24.4866 H   0  0  0  0  0  0  0  0  0  0  0  0
  1  2  1  0
  2  3  1  0
  3  4  1  0
  4  5  1  0
  5  6  1  0
  5  7  1  0
  7  8  1  0
  8  9  2  0
  9 10  1  0
 10 11  2  0
 11 12  1  0
 12 13  2  0
 13 14  1  0
 14 15  2  0
 15 16  1  0
  4 17  1  0
  3 18  1  0
  6  2  1  0
 11  7  1  0
 15 10  1  0
  1 19  1  0
  1 20  1  0
  2 21  1  0
  3 22  1  0
  4 23  1  0
  5 24  1  0
  8 25  1  0
 13 26  1  0
 16 27  1  0
 16 28  1  0
 17 29  1  0
 18 30  1  0
M  RAD  1   1   2
M  END
$$$$

     RDKit          3D

 30 32  0  0  0  0  0  0  0  0999 V2000
  -13.1491   13.7532  -22.1924 C   0  0  0  0  0  3  0  0  0  0  0  0
  -11.8234   13.8295  -22.9238 C   0  0  0  0  0  0  0  0  0  0  0  0
  -11.9398   14.8226  -24.0418 C   0  0  0  0  0  0  0  0  0  0  0  0
  -11.9673   13.9510  -25.2763 C   0  0  0  0  0  0  0  0  0  0  0  0
  -12.2717   12.5920  -24.6882 C   0  0  0  0  0  0  0  0  0  0  0  0
  -11.5181   12.5943  -23.5189 O   0  0  0  0  0  0  0  0  0  0  0  0
  -11.8241   11.5758  -25.6112 N   0  0  0  0  0  0  0  0  0  0  0  0
  -11.7978   11.6780  -26.9560 C   0  0  0  0  0  0  0  0  0  0  0  0
  -11.3099   10.5058  -27.4469 N   0  0  0  0  0  0  0  0  0  0  0  0
  -11.0359    9.6825  -26.4065 C   0  0  0  0  0  0  0  0  0  0  0  0
  -11.3588   10.3531  -25.2438 C   0  0  0  0  0  0  0  0  0  0  0  0
  -11.2083    9.8190  -24.0172 N   0  0  0  0  0  0  0  0  0  0  0  0
  -10.7167    8.5653  -23.9340 C   0  0  0  0  0  0  0  0  0  0  0  0
  -10.3961    7.8963  -25.0643 N   0  0  0  0  0  0  0  0  0  0  0  0
  -10.5373    8.4071  -26.2906 C   0  0  0  0  0  0  0  0  0  0  0  0
  -10.2029    7.7102  -27.4761 N   0  0  0  0  0  0  0  0  0  0  0  0
  -12.9504   14.3174  -26.1747 O   0  0  0  0  0  0  0  0  0  0  0  0
  -13.1196   15.5547  -23.9931 O   0  0  0  0  0  0  0  0  0  0  0  0
  -13.9459   14.3385  -22.6955 H   0  0  0  0  0  0  0  0  0  0  0  0
  -13.0445   14.1105  -21.1465 H   0  0  0  0  0  0  0  0  0  0  0  0
  -10.9777   14.0665  -22.2486 H   0  0  0  0  0  0  0  0  0  0  0  0
  -11.1070   15.5534  -24.0700 H   0  0  0  0  0  0  0  0  0  0  0  0
  -10.9757   13.9555  -25.7791 H   0  0  0  0  0  0  0  0  0  0  0  0
  -13.3416   12.5134  -24.4453 H   0  0  0  0  0  0  0  0  0  0  0  0
  -12.1123   12.5452  -27.5299 H   0  0  0  0  0  0  0  0  0  0  0  0
  -10.5644    8.0596  -22.9725 H   0  0  0  0  0  0  0  0  0  0  0  0
  -10.8879    7.7912  -28.2714 H   0  0  0  0  0  0  0  0  0  0  0  0
   -9.3635    7.1421  -27.6243 H   0  0  0  0  0  0  0  0  0  0  0  0
  -13.7787   13.8071  -26.0173 H   0  0  0  0  0  0  0  0  0  0  0  0
  -13.5027   15.6697  -24.8927 H   0  0  0  0  0  0  0  0  0  0  0  0
  1  2  1  0
  2  3  1  0
  3  4  1  0
  4  5  1  0
  5  6  1  0
  5  7  1  0
  7  8  1  0
  8  9  2  0
  9 10  1  0
 10 11  2  0
 11 12  1  0
 12 13  2  0
 13 14  1  0
 14 15  2  0
 15 16  1  0
  4 17  1  0
  3 18  1  0
  6  2  1  0
 11  7  1  0
 15 10  1  0
  1 19  1  0
  1 20  1  0
  2 21  1  0
  3 22  1  0
  4 23  1  0
  5 24  1  0
  8 25  1  0
 13 26  1  0
 16 27  1  0
 16 28  1  0
 17 29  1  0
 18 30  1  0
M  RAD  1   1   2
M  END
$$$$

     RDKit          3D

 30 32  0  0  0  0  0  0  0  0999 V2000
  -11.1823   15.9755  -24.7828 C   0  0  0  0  0  3  0  0  0  0  0  0
  -11.6182   14.6619  -24.1962 C   0  0  0  0  0  0  0  0  0  0  0  0
  -13.1109   14.4692  -24.2230 C   0  0  0  0  0  0  0  0  0  0  0  0
  -13.1965   12.9633  -23.9383 C   0  0  0  0  0  0  0  0  0  0  0  0
  -11.8457   12.4957  -24.3819 C   0  0  0  0  0  0  0  0  0  0  0  0
  -11.1914   13.5708  -24.9621 O   0  0  0  0  0  0  0  0  0  0  0  0
  -11.9522   11.3545  -25.2501 N   0  0  0  0  0  0  0  0  0  0  0  0
  -12.9300   11.0161  -26.1098 C   0  0  0  0  0  0  0  0  0  0  0  0
  -12.5926    9.8409  -26.7192 N   0  0  0  0  0  0  0  0  0  0  0  0
  -11.4204    9.4468  -26.2492 C   0  0  0  0  0  0  0  0  0  0  0  0
  -10.9983   10.3809  -25.3255 C   0  0  0  0  0  0  0  0  0  0  0  0
   -9.8163   10.2433  -24.6694 N   0  0  0  0  0  0  0  0  0  0  0  0
   -9.0302    9.1758  -24.9176 C   0  0  0  0  0  0  0  0  0  0  0  0
   -9.4476    8.2675  -25.8203 N   0  0  0  0  0  0  0  0  0  0  0  0
  -10.5927    8.3500  -26.4915 C   0  0  0  0  0  0  0  0  0  0  0  0
  -11.0480    7.4082  -27.4418 N   0  0  0  0  0  0  0  0  0  0  0  0
  -13.3735   12.8394  -22.5428 O   0  0  0  0  0  0  0  0  0  0  0  0
  -13.7802   15.1481  -23.2346 O   0  0  0  0  0  0  0  0  0  0  0  0
  -11.6857   16.7784  -24.2391 H   0  0  0  0  0  0  0  0  0  0  0  0
  -11.2696   16.0319  -25.8716 H   0  0  0  0  0  0  0  0  0  0  0  0
  -11.2785   14.6119  -23.1610 H   0  0  0  0  0  0  0  0  0  0  0  0
  -13.5647   14.6714  -25.2041 H   0  0  0  0  0  0  0  0  0  0  0  0
  -14.0376   12.5528  -24.4940 H   0  0  0  0  0  0  0  0  0  0  0  0
  -11.2675   12.2528  -23.4437 H   0  0  0  0  0  0  0  0  0  0  0  0
  -13.8367   11.5935  -26.2823 H   0  0  0  0  0  0  0  0  0  0  0  0
   -8.0689    9.0271  -24.4098 H   0  0  0  0  0  0  0  0  0  0  0  0
  -11.5684    6.5812  -27.1065 H   0  0  0  0  0  0  0  0  0  0  0  0
  -10.8924    7.4927  -28.4701 H   0  0  0  0  0  0  0  0  0  0  0  0
  -14.3134   12.5624  -22.3768 H   0  0  0  0  0  0  0  0  0  0  0  0
  -14.1272   15.9962  -23.5641 H   0  0  0  0  0  0  0  0  0  0  0  0
  1  2  1  0
  2  3  1  0
  3  4  1  0
  4  5  1  0
  5  6  1  0
  5  7  1  0
  7  8  1  0
  8  9  2  0
  9 10  1  0
 10 11  2  0
 11 12  1  0
 12 13  2  0
 13 14  1  0
 14 15  2  0
 15 16  1  0
  4 17  1  0
  3 18  1  0
  6  2  1  0
 11  7  1  0
 15 10  1  0
  1 19  1  0
  1 20  1  0
  2 21  1  0
  3 22  1  0
  4 23  1  0
  5 24  1  0
  8 25  1  0
 13 26  1  0
 16 27  1  0
 16 28  1  0
 17 29  1  0
 18 30  1  0
M  RAD  1   1   2
M  END
$$$$

     RDKit          3D

 30 32  0  0  0  0  0  0  0  0999 V2000
  -14.2629   14.9696  -23.4072 C   0  0  0  0  0  3  0  0  0  0  0  0
  -13.5797   13.9610  -24.3093 C   0  0  0  0  0  0  0  0  0  0  0  0
  -12.3008   14.5424  -24.8225 C   0  0  0  0  0  0  0  0  0  0  0  0
  -11.2333   13.4944  -24.5843 C   0  0  0  0  0  0  0  0  0  0  0  0
  -12.0328   12.3505  -24.0357 C   0  0  0  0  0  0  0  0  0  0  0  0
  -13.2625   12.8018  -23.6489 O   0  0  0  0  0  0  0  0  0  0  0  0
  -12.0649   11.2898  -25.0113 N   0  0  0  0  0  0  0  0  0  0  0  0
  -13.0387   11.0110  -25.8946 C   0  0  0  0  0  0  0  0  0  0  0  0
  -12.6702    9.9329  -26.6256 N   0  0  0  0  0  0  0  0  0  0  0  0
  -11.4609    9.5160  -26.2155 C   0  0  0  0  0  0  0  0  0  0  0  0
  -11.0920   10.3642  -25.2124 C   0  0  0  0  0  0  0  0  0  0  0  0
   -9.8955   10.1665  -24.6133 N   0  0  0  0  0  0  0  0  0  0  0  0
   -9.0526    9.1805  -24.9533 C   0  0  0  0  0  0  0  0  0  0  0  0
   -9.4037    8.3398  -25.9379 N   0  0  0  0  0  0  0  0  0  0  0  0
  -10.5983    8.5004  -26.5693 C   0  0  0  0  0  0  0  0  0  0  0  0
  -10.9495    7.6051  -27.6032 N   0  0  0  0  0  0  0  0  0  0  0  0
  -10.2550   13.9247  -23.7193 O   0  0  0  0  0  0  0  0  0  0  0  0
  -11.9736   15.6573  -24.0924 O   0  0  0  0  0  0  0  0  0  0  0  0
  -14.4561   14.4864  -22.4511 H   0  0  0  0  0  0  0  0  0  0  0  0
  -15.1085   15.4743  -23.8748 H   0  0  0  0  0  0  0  0  0  0  0  0
  -14.2915   13.7115  -25.1318 H   0  0  0  0  0  0  0  0  0  0  0  0
  -12.3658   14.7392  -25.9209 H   0  0  0  0  0  0  0  0  0  0  0  0
  -10.7317   13.2052  -25.5357 H   0  0  0  0  0  0  0  0  0  0  0  0
  -11.4815   11.9941  -23.1188 H   0  0  0  0  0  0  0  0  0  0  0  0
  -13.9817   11.5175  -26.0512 H   0  0  0  0  0  0  0  0  0  0  0  0
   -8.0930    9.0148  -24.4790 H   0  0  0  0  0  0  0  0  0  0  0  0
  -10.6607    7.8090  -28.5731 H   0  0  0  0  0  0  0  0  0  0  0  0
  -11.4910    6.7587  -27.3707 H   0  0  0  0  0  0  0  0  0  0  0  0
  -10.1846   13.2866  -22.9592 H   0  0  0  0  0  0  0  0  0  0  0  0
  -11.0142   15.8630  -24.2374 H   0  0  0  0  0  0  0  0  0  0  0  0
  1  2  1  0
  2  3  1  0
  3  4  1  0
  4  5  1  0
  5  6  1  0
  5  7  1  0
  7  8  1  0
  8  9  2  0
  9 10  1  0
 10 11  2  0
 11 12  1  0
 12 13  2  0
 13 14  1  0
 14 15  2  0
 15 16  1  0
  4 17  1  0
  3 18  1  0
  6  2  1  0
 11  7  1  0
 15 10  1  0
  1 19  1  0
  1 20  1  0
  2 21  1  0
  3 22  1  0
  4 23  1  0
  5 24  1  0
  8 25  1  0
 13 26  1  0
 16 27  1  0
 16 28  1  0
 17 29  1  0
 18 30  1  0
M  RAD  1   1   2
M  END
$$$$

     RDKit          3D

 30 32  0  0  0  0  0  0  0  0999 V2000
  -13.7320   14.7970  -22.7912 C   0  0  0  0  0  3  0  0  0  0  0  0
  -13.6483   13.9069  -24.0339 C   0  0  0  0  0  0  0  0  0  0  0  0
  -12.4707   14.3810  -24.8453 C   0  0  0  0  0  0  0  0  0  0  0  0
  -11.3465   13.5660  -24.2024 C   0  0  0  0  0  0  0  0  0  0  0  0
  -12.1059   12.2919  -23.8946 C   0  0  0  0  0  0  0  0  0  0  0  0
  -13.4029   12.6350  -23.6116 O   0  0  0  0  0  0  0  0  0  0  0  0
  -12.0002   11.3679  -25.0050 N   0  0  0  0  0  0  0  0  0  0  0  0
  -12.7748   11.3901  -26.1044 C   0  0  0  0  0  0  0  0  0  0  0  0
  -12.3533   10.3745  -26.8794 N   0  0  0  0  0  0  0  0  0  0  0  0
  -11.3330    9.7351  -26.2662 C   0  0  0  0  0  0  0  0  0  0  0  0
  -11.1051   10.3718  -25.0625 C   0  0  0  0  0  0  0  0  0  0  0  0
  -10.1196    9.9296  -24.2301 N   0  0  0  0  0  0  0  0  0  0  0  0
   -9.3466    8.8726  -24.5491 C   0  0  0  0  0  0  0  0  0  0  0  0
   -9.5513    8.2379  -25.7162 N   0  0  0  0  0  0  0  0  0  0  0  0
  -10.5271    8.6591  -26.5632 C   0  0  0  0  0  0  0  0  0  0  0  0
  -10.7277    7.9775  -27.7886 N   0  0  0  0  0  0  0  0  0  0  0  0
  -10.2946   13.3681  -25.0701 O   0  0  0  0  0  0  0  0  0  0  0  0
  -12.2874   15.7458  -24.6422 O   0  0  0  0  0  0  0  0  0  0  0  0
  -12.8780   15.4840  -22.7168 H   0  0  0  0  0  0  0  0  0  0  0  0
  -14.6602   15.4043  -22.8284 H   0  0  0  0  0  0  0  0  0  0  0  0
  -14.5683   14.0331  -24.6253 H   0  0  0  0  0  0  0  0  0  0  0  0
  -12.5592   14.2019  -25.9167 H   0  0  0  0  0  0  0  0  0  0  0  0
  -11.0716   14.0998  -23.2767 H   0  0  0  0  0  0  0  0  0  0  0  0
  -11.6323   11.8596  -22.9823 H   0  0  0  0  0  0  0  0  0  0  0  0
  -13.5876   12.0709  -26.3584 H   0  0  0  0  0  0  0  0  0  0  0  0
   -8.5617    8.5017  -23.9117 H   0  0  0  0  0  0  0  0  0  0  0  0
  -11.2251    7.0434  -27.8278 H   0  0  0  0  0  0  0  0  0  0  0  0
  -10.3682    8.4260  -28.6579 H   0  0  0  0  0  0  0  0  0  0  0  0
   -9.5047   13.8531  -24.6695 H   0  0  0  0  0  0  0  0  0  0  0  0
  -13.1624   16.1776  -24.8474 H   0  0  0  0  0  0  0  0  0  0  0  0
  1  2  1  0
  2  3  1  0
  3  4  1  0
  4  5  1  0
  5  6  1  0
  5  7  1  0
  7  8  1  0
  8  9  2  0
  9 10  1  0
 10 11  2  0
 11 12  1  0
 12 13  2  0
 13 14  1  0
 14 15  2  0
 15 16  1  0
  4 17  1  0
  3 18  1  0
  6  2  1  0
 11  7  1  0
 15 10  1  0
  1 19  1  0
  1 20  1  0
  2 21  1  0
  3 22  1  0
  4 23  1  0
  5 24  1  0
  8 25  1  0
 13 26  1  0
 16 27  1  0
 16 28  1  0
 17 29  1  0
 18 30  1  0
M  RAD  1   1   2
M  END
$$$$

     RDKit          3D

 30 32  0  0  0  0  0  0  0  0999 V2000
  -14.5457   14.6010  -23.1008 C   0  0  0  0  0  3  0  0  0  0  0  0
  -13.4489   14.3318  -24.0938 C   0  0  0  0  0  0  0  0  0  0  0  0
  -12.1083   14.3542  -23.3643 C   0  0  0  0  0  0  0  0  0  0  0  0
  -11.4273   13.1053  -23.9196 C   0  0  0  0  0  0  0  0  0  0  0  0
  -12.2677   12.8145  -25.1234 C   0  0  0  0  0  0  0  0  0  0  0  0
  -13.5586   13.0707  -24.6628 O   0  0  0  0  0  0  0  0  0  0  0  0
  -12.1351   11.4829  -25.6286 N   0  0  0  0  0  0  0  0  0  0  0  0
  -13.1116   10.8696  -26.3269 C   0  0  0  0  0  0  0  0  0  0  0  0
  -12.6850    9.6339  -26.6595 N   0  0  0  0  0  0  0  0  0  0  0  0
  -11.4370    9.4247  -26.1881 C   0  0  0  0  0  0  0  0  0  0  0  0
  -11.1146   10.6090  -25.5412 C   0  0  0  0  0  0  0  0  0  0  0  0
   -9.9171   10.7053  -24.9629 N   0  0  0  0  0  0  0  0  0  0  0  0
   -9.0553    9.6722  -25.0142 C   0  0  0  0  0  0  0  0  0  0  0  0
   -9.3591    8.5207  -25.6388 N   0  0  0  0  0  0  0  0  0  0  0  0
  -10.5507    8.3583  -26.2426 C   0  0  0  0  0  0  0  0  0  0  0  0
  -10.9090    7.1557  -26.9133 N   0  0  0  0  0  0  0  0  0  0  0  0
  -10.1212   13.4195  -24.2109 O   0  0  0  0  0  0  0  0  0  0  0  0
  -11.3748   15.4786  -23.6642 O   0  0  0  0  0  0  0  0  0  0  0  0
  -14.1688   15.2850  -22.3366 H   0  0  0  0  0  0  0  0  0  0  0  0
  -15.4860   14.9286  -23.5462 H   0  0  0  0  0  0  0  0  0  0  0  0
  -13.4609   15.0632  -24.9329 H   0  0  0  0  0  0  0  0  0  0  0  0
  -12.2599   14.2648  -22.2751 H   0  0  0  0  0  0  0  0  0  0  0  0
  -11.5411   12.3144  -23.1819 H   0  0  0  0  0  0  0  0  0  0  0  0
  -12.0831   13.5191  -25.9541 H   0  0  0  0  0  0  0  0  0  0  0  0
  -14.0943   11.2444  -26.6090 H   0  0  0  0  0  0  0  0  0  0  0  0
   -8.0801    9.7427  -24.5466 H   0  0  0  0  0  0  0  0  0  0  0  0
  -10.5060    6.2714  -26.5943 H   0  0  0  0  0  0  0  0  0  0  0  0
  -11.5681    7.1374  -27.7202 H   0  0  0  0  0  0  0  0  0  0  0  0
   -9.9927   13.7030  -25.1513 H   0  0  0  0  0  0  0  0  0  0  0  0
  -10.3961   15.2851  -23.7814 H   0  0  0  0  0  0  0  0  0  0  0  0
  1  2  1  0
  2  3  1  0
  3  4  1  0
  4  5  1  0
  5  6  1  0
  5  7  1  0
  7  8  1  0
  8  9  2  0
  9 10  1  0
 10 11  2  0
 11 12  1  0
 12 13  2  0
 13 14  1  0
 14 15  2  0
 15 16  1  0
  4 17  1  0
  3 18  1  0
  6  2  1  0
 11  7  1  0
 15 10  1  0
  1 19  1  0
  1 20  1  0
  2 21  1  0
  3 22  1  0
  4 23  1  0
  5 24  1  0
  8 25  1  0
 13 26  1  0
 16 27  1  0
 16 28  1  0
 17 29  1  0
 18 30  1  0
M  RAD  1   1   2
M  END
$$$$

     RDKit          3D

 30 32  0  0  0  0  0  0  0  0999 V2000
  -12.6192   13.7494  -21.6572 C   0  0  0  0  0  3  0  0  0  0  0  0
  -12.7131   13.2482  -23.0753 C   0  0  0  0  0  0  0  0  0  0  0  0
  -13.1948   14.3233  -24.0308 C   0  0  0  0  0  0  0  0  0  0  0  0
  -12.8190   13.6334  -25.3519 C   0  0  0  0  0  0  0  0  0  0  0  0
  -11.5036   13.0234  -24.9448 C   0  0  0  0  0  0  0  0  0  0  0  0
  -11.5239   12.8132  -23.5931 O   0  0  0  0  0  0  0  0  0  0  0  0
  -11.2065   11.8222  -25.7043 N   0  0  0  0  0  0  0  0  0  0  0  0
  -10.9010   11.8097  -27.0000 C   0  0  0  0  0  0  0  0  0  0  0  0
  -10.6770   10.5452  -27.4212 N   0  0  0  0  0  0  0  0  0  0  0  0
  -10.8399    9.7256  -26.3822 C   0  0  0  0  0  0  0  0  0  0  0  0
  -11.1756   10.5415  -25.2961 C   0  0  0  0  0  0  0  0  0  0  0  0
  -11.3987    9.9813  -24.1103 N   0  0  0  0  0  0  0  0  0  0  0  0
  -11.3073    8.6520  -23.9396 C   0  0  0  0  0  0  0  0  0  0  0  0
  -10.9834    7.8712  -24.9897 N   0  0  0  0  0  0  0  0  0  0  0  0
  -10.7437    8.3590  -26.2161 C   0  0  0  0  0  0  0  0  0  0  0  0
  -10.4037    7.5318  -27.3155 N   0  0  0  0  0  0  0  0  0  0  0  0
  -12.7148   14.5226  -26.3896 O   0  0  0  0  0  0  0  0  0  0  0  0
  -12.4019   15.4550  -23.8384 O   0  0  0  0  0  0  0  0  0  0  0  0
  -11.7646   14.4569  -21.6070 H   0  0  0  0  0  0  0  0  0  0  0  0
  -13.5434   14.3547  -21.4741 H   0  0  0  0  0  0  0  0  0  0  0  0
  -13.4491   12.3961  -23.1464 H   0  0  0  0  0  0  0  0  0  0  0  0
  -14.2661   14.5198  -23.9591 H   0  0  0  0  0  0  0  0  0  0  0  0
  -13.5958   12.8500  -25.5058 H   0  0  0  0  0  0  0  0  0  0  0  0
  -10.7224   13.8155  -25.1413 H   0  0  0  0  0  0  0  0  0  0  0  0
  -10.8359   12.6759  -27.6418 H   0  0  0  0  0  0  0  0  0  0  0  0
  -11.4952    8.2020  -22.9496 H   0  0  0  0  0  0  0  0  0  0  0  0
  -10.9780    6.6925  -27.5527 H   0  0  0  0  0  0  0  0  0  0  0  0
   -9.5800    7.7168  -27.9293 H   0  0  0  0  0  0  0  0  0  0  0  0
  -13.3597   14.2278  -27.1082 H   0  0  0  0  0  0  0  0  0  0  0  0
  -11.8573   15.6265  -24.6543 H   0  0  0  0  0  0  0  0  0  0  0  0
  1  2  1  0
  2  3  1  0
  3  4  1  0
  4  5  1  0
  5  6  1  0
  5  7  1  0
  7  8  1  0
  8  9  2  0
  9 10  1  0
 10 11  2  0
 11 12  1  0
 12 13  2  0
 13 14  1  0
 14 15  2  0
 15 16  1  0
  4 17  1  0
  3 18  1  0
  6  2  1  0
 11  7  1  0
 15 10  1  0
  1 19  1  0
  1 20  1  0
  2 21  1  0
  3 22  1  0
  4 23  1  0
  5 24  1  0
  8 25  1  0
 13 26  1  0
 16 27  1  0
 16 28  1  0
 17 29  1  0
 18 30  1  0
M  RAD  1   1   2
M  END
$$$$

     RDKit          3D

 30 32  0  0  0  0  0  0  0  0999 V2000
  -13.1367   15.6784  -25.3138 C   0  0  0  0  0  3  0  0  0  0  0  0
  -13.1379   14.3977  -24.5223 C   0  0  0  0  0  0  0  0  0  0  0  0
  -12.0423   14.3664  -23.4753 C   0  0  0  0  0  0  0  0  0  0  0  0
  -11.6053   12.9095  -23.5365 C   0  0  0  0  0  0  0  0  0  0  0  0
  -12.7167   12.3101  -24.3578 C   0  0  0  0  0  0  0  0  0  0  0  0
  -12.8993   13.2885  -25.3346 O   0  0  0  0  0  0  0  0  0  0  0  0
  -12.4369   11.0154  -24.8846 N   0  0  0  0  0  0  0  0  0  0  0  0
  -13.3025    9.9840  -24.8505 C   0  0  0  0  0  0  0  0  0  0  0  0
  -12.7251    8.9006  -25.4344 N   0  0  0  0  0  0  0  0  0  0  0  0
  -11.4811    9.2922  -25.8289 C   0  0  0  0  0  0  0  0  0  0  0  0
  -11.3021   10.6152  -25.4845 C   0  0  0  0  0  0  0  0  0  0  0  0
  -10.1747   11.3034  -25.7366 N   0  0  0  0  0  0  0  0  0  0  0  0
   -9.1717   10.6277  -26.3688 C   0  0  0  0  0  0  0  0  0  0  0  0
   -9.3103    9.3351  -26.7205 N   0  0  0  0  0  0  0  0  0  0  0  0
  -10.4491    8.6359  -26.4672 C   0  0  0  0  0  0  0  0  0  0  0  0
  -10.5674    7.2775  -26.8481 N   0  0  0  0  0  0  0  0  0  0  0  0
  -11.6028   12.4284  -22.2320 O   0  0  0  0  0  0  0  0  0  0  0  0
  -11.0653   15.2419  -23.8596 O   0  0  0  0  0  0  0  0  0  0  0  0
  -13.6729   15.5037  -26.2613 H   0  0  0  0  0  0  0  0  0  0  0  0
  -13.6534   16.4464  -24.7195 H   0  0  0  0  0  0  0  0  0  0  0  0
  -14.1197   14.2325  -24.0072 H   0  0  0  0  0  0  0  0  0  0  0  0
  -12.4309   14.6356  -22.4735 H   0  0  0  0  0  0  0  0  0  0  0  0
  -10.6251   12.8833  -24.0150 H   0  0  0  0  0  0  0  0  0  0  0  0
  -13.6269   12.3189  -23.7259 H   0  0  0  0  0  0  0  0  0  0  0  0
  -14.3129    9.9463  -24.4411 H   0  0  0  0  0  0  0  0  0  0  0  0
   -8.2281   11.1107  -26.6092 H   0  0  0  0  0  0  0  0  0  0  0  0
  -11.2235    6.6491  -26.3419 H   0  0  0  0  0  0  0  0  0  0  0  0
  -10.0199    6.8538  -27.6303 H   0  0  0  0  0  0  0  0  0  0  0  0
  -11.7323   11.4622  -22.2369 H   0  0  0  0  0  0  0  0  0  0  0  0
  -10.3638   15.4117  -23.1879 H   0  0  0  0  0  0  0  0  0  0  0  0
  1  2  1  0
  2  3  1  0
  3  4  1  0
  4  5  1  0
  5  6  1  0
  5  7  1  0
  7  8  1  0
  8  9  2  0
  9 10  1  0
 10 11  2  0
 11 12  1  0
 12 13  2  0
 13 14  1  0
 14 15  2  0
 15 16  1  0
  4 17  1  0
  3 18  1  0
  6  2  1  0
 11  7  1  0
 15 10  1  0
  1 19  1  0
  1 20  1  0
  2 21  1  0
  3 22  1  0
  4 23  1  0
  5 24  1  0
  8 25  1  0
 13 26  1  0
 16 27  1  0
 16 28  1  0
 17 29  1  0
 18 30  1  0
M  RAD  1   1   2
M  END
$$$$

     RDKit          3D

 30 32  0  0  0  0  0  0  0  0999 V2000
  -12.5726   16.0574  -25.1211 C   0  0  0  0  0  3  0  0  0  0  0  0
  -12.8222   14.6200  -24.7497 C   0  0  0  0  0  0  0  0  0  0  0  0
  -12.6908   14.3832  -23.2579 C   0  0  0  0  0  0  0  0  0  0  0  0
  -12.7050   12.8423  -23.2926 C   0  0  0  0  0  0  0  0  0  0  0  0
  -11.7726   12.6475  -24.4597 C   0  0  0  0  0  0  0  0  0  0  0  0
  -11.9261   13.7417  -25.3063 O   0  0  0  0  0  0  0  0  0  0  0  0
  -11.9185   11.3938  -25.1228 N   0  0  0  0  0  0  0  0  0  0  0  0
  -13.0428   10.8093  -25.6153 C   0  0  0  0  0  0  0  0  0  0  0  0
  -12.7225    9.6272  -26.1617 N   0  0  0  0  0  0  0  0  0  0  0  0
  -11.3806    9.4069  -26.0413 C   0  0  0  0  0  0  0  0  0  0  0  0
  -10.9134   10.5357  -25.3856 C   0  0  0  0  0  0  0  0  0  0  0  0
   -9.5753   10.5506  -25.1460 N   0  0  0  0  0  0  0  0  0  0  0  0
   -8.7529    9.5560  -25.5099 C   0  0  0  0  0  0  0  0  0  0  0  0
   -9.2423    8.4632  -26.1512 N   0  0  0  0  0  0  0  0  0  0  0  0
  -10.5500    8.3795  -26.4205 C   0  0  0  0  0  0  0  0  0  0  0  0
  -11.0624    7.2536  -27.0826 N   0  0  0  0  0  0  0  0  0  0  0  0
  -14.0260   12.5245  -23.5853 O   0  0  0  0  0  0  0  0  0  0  0  0
  -11.4510   14.8156  -22.8466 O   0  0  0  0  0  0  0  0  0  0  0  0
  -13.3483   16.3942  -25.8507 H   0  0  0  0  0  0  0  0  0  0  0  0
  -11.5422   16.2094  -25.4929 H   0  0  0  0  0  0  0  0  0  0  0  0
  -13.8465   14.2713  -25.0671 H   0  0  0  0  0  0  0  0  0  0  0  0
  -13.5271   14.7827  -22.6790 H   0  0  0  0  0  0  0  0  0  0  0  0
  -12.3397   12.4208  -22.3538 H   0  0  0  0  0  0  0  0  0  0  0  0
  -10.7451   12.7236  -24.0467 H   0  0  0  0  0  0  0  0  0  0  0  0
  -14.0150   11.2663  -25.5515 H   0  0  0  0  0  0  0  0  0  0  0  0
   -7.6866    9.5850  -25.3103 H   0  0  0  0  0  0  0  0  0  0  0  0
  -11.2681    6.3924  -26.5502 H   0  0  0  0  0  0  0  0  0  0  0  0
  -11.2375    7.2744  -28.0998 H   0  0  0  0  0  0  0  0  0  0  0  0
  -14.5845   13.1320  -23.0027 H   0  0  0  0  0  0  0  0  0  0  0  0
  -11.4565   15.3463  -22.0140 H   0  0  0  0  0  0  0  0  0  0  0  0
  1  2  1  0
  2  3  1  0
  3  4  1  0
  4  5  1  0
  5  6  1  0
  5  7  1  0
  7  8  1  0
  8  9  2  0
  9 10  1  0
 10 11  2  0
 11 12  1  0
 12 13  2  0
 13 14  1  0
 14 15  2  0
 15 16  1  0
  4 17  1  0
  3 18  1  0
  6  2  1  0
 11  7  1  0
 15 10  1  0
  1 19  1  0
  1 20  1  0
  2 21  1  0
  3 22  1  0
  4 23  1  0
  5 24  1  0
  8 25  1  0
 13 26  1  0
 16 27  1  0
 16 28  1  0
 17 29  1  0
 18 30  1  0
M  RAD  1   1   2
M  END
$$$$

     RDKit          3D

 30 32  0  0  0  0  0  0  0  0999 V2000
  -14.2973   14.6876  -22.7533 C   0  0  0  0  0  3  0  0  0  0  0  0
  -13.0580   13.8755  -23.0430 C   0  0  0  0  0  0  0  0  0  0  0  0
  -11.9969   14.7290  -23.7021 C   0  0  0  0  0  0  0  0  0  0  0  0
  -11.1819   13.6701  -24.4536 C   0  0  0  0  0  0  0  0  0  0  0  0
  -11.9725   12.4258  -24.2138 C   0  0  0  0  0  0  0  0  0  0  0  0
  -13.2883   12.9163  -24.0500 O   0  0  0  0  0  0  0  0  0  0  0  0
  -11.8819   11.4533  -25.2599 N   0  0  0  0  0  0  0  0  0  0  0  0
  -12.4862   11.4138  -26.4609 C   0  0  0  0  0  0  0  0  0  0  0  0
  -12.0970   10.3022  -27.1124 N   0  0  0  0  0  0  0  0  0  0  0  0
  -11.2306    9.5989  -26.3430 C   0  0  0  0  0  0  0  0  0  0  0  0
  -11.1090   10.3381  -25.1851 C   0  0  0  0  0  0  0  0  0  0  0  0
  -10.2877    9.8402  -24.2444 N   0  0  0  0  0  0  0  0  0  0  0  0
   -9.6062    8.6957  -24.3801 C   0  0  0  0  0  0  0  0  0  0  0  0
   -9.7304    7.9855  -25.5067 N   0  0  0  0  0  0  0  0  0  0  0  0
  -10.5295    8.4203  -26.4843 C   0  0  0  0  0  0  0  0  0  0  0  0
  -10.6612    7.6666  -27.6798 N   0  0  0  0  0  0  0  0  0  0  0  0
  -11.1117   13.9788  -25.8151 O   0  0  0  0  0  0  0  0  0  0  0  0
  -12.6009   15.6103  -24.5685 O   0  0  0  0  0  0  0  0  0  0  0  0
  -13.9670   15.5595  -22.1419 H   0  0  0  0  0  0  0  0  0  0  0  0
  -14.9976   14.0666  -22.1577 H   0  0  0  0  0  0  0  0  0  0  0  0
  -12.6807   13.3250  -22.1632 H   0  0  0  0  0  0  0  0  0  0  0  0
  -11.3458   15.2361  -22.9466 H   0  0  0  0  0  0  0  0  0  0  0  0
  -10.1556   13.6239  -24.0422 H   0  0  0  0  0  0  0  0  0  0  0  0
  -11.6879   11.9729  -23.2327 H   0  0  0  0  0  0  0  0  0  0  0  0
  -13.1676   12.1867  -26.7905 H   0  0  0  0  0  0  0  0  0  0  0  0
   -8.9584    8.3320  -23.6017 H   0  0  0  0  0  0  0  0  0  0  0  0
  -11.5517    7.4835  -28.1568 H   0  0  0  0  0  0  0  0  0  0  0  0
   -9.7867    7.2745  -28.0968 H   0  0  0  0  0  0  0  0  0  0  0  0
  -10.4237   14.6672  -25.9734 H   0  0  0  0  0  0  0  0  0  0  0  0
  -12.0838   16.4675  -24.6458 H   0  0  0  0  0  0  0  0  0  0  0  0
  1  2  1  0
  2  3  1  0
  3  4  1  0
  4  5  1  0
  5  6  1  0
  5  7  1  0
  7  8  1  0
  8  9  2  0
  9 10  1  0
 10 11  2  0
 11 12  1  0
 12 13  2  0
 13 14  1  0
 14 15  2  0
 15 16  1  0
  4 17  1  0
  3 18  1  0
  6  2  1  0
 11  7  1  0
 15 10  1  0
  1 19  1  0
  1 20  1  0
  2 21  1  0
  3 22  1  0
  4 23  1  0
  5 24  1  0
  8 25  1  0
 13 26  1  0
 16 27  1  0
 16 28  1  0
 17 29  1  0
 18 30  1  0
M  RAD  1   1   2
M  END
$$$$

     RDKit          3D

 30 32  0  0  0  0  0  0  0  0999 V2000
  -14.5504   15.1637  -23.9606 C   0  0  0  0  0  3  0  0  0  0  0  0
  -13.4385   14.1866  -23.6557 C   0  0  0  0  0  0  0  0  0  0  0  0
  -12.0989   14.7367  -24.0783 C   0  0  0  0  0  0  0  0  0  0  0  0
  -11.5310   13.5853  -24.8817 C   0  0  0  0  0  0  0  0  0  0  0  0
  -12.3319   12.4313  -24.3121 C   0  0  0  0  0  0  0  0  0  0  0  0
  -13.6117   12.9754  -24.3006 O   0  0  0  0  0  0  0  0  0  0  0  0
  -12.2463   11.2549  -25.1457 N   0  0  0  0  0  0  0  0  0  0  0  0
  -13.1900   10.7130  -25.9375 C   0  0  0  0  0  0  0  0  0  0  0  0
  -12.6971    9.6177  -26.5422 N   0  0  0  0  0  0  0  0  0  0  0  0
  -11.4253    9.4421  -26.1444 C   0  0  0  0  0  0  0  0  0  0  0  0
  -11.1655   10.4853  -25.2659 C   0  0  0  0  0  0  0  0  0  0  0  0
   -9.9182   10.5124  -24.7285 N   0  0  0  0  0  0  0  0  0  0  0  0
   -8.9816    9.5984  -25.0152 C   0  0  0  0  0  0  0  0  0  0  0  0
   -9.2773    8.6036  -25.8727 N   0  0  0  0  0  0  0  0  0  0  0  0
  -10.4763    8.4965  -26.4492 C   0  0  0  0  0  0  0  0  0  0  0  0
  -10.7756    7.4468  -27.3488 N   0  0  0  0  0  0  0  0  0  0  0  0
  -10.1649   13.4272  -24.6247 O   0  0  0  0  0  0  0  0  0  0  0  0
  -11.2465   14.9312  -22.9921 O   0  0  0  0  0  0  0  0  0  0  0  0
  -14.4926   15.5349  -24.9849 H   0  0  0  0  0  0  0  0  0  0  0  0
  -14.4911   15.9717  -23.2000 H   0  0  0  0  0  0  0  0  0  0  0  0
  -13.3856   13.9891  -22.5659 H   0  0  0  0  0  0  0  0  0  0  0  0
  -12.1796   15.6649  -24.6729 H   0  0  0  0  0  0  0  0  0  0  0  0
  -11.7262   13.7076  -25.9583 H   0  0  0  0  0  0  0  0  0  0  0  0
  -12.0406   12.2557  -23.2705 H   0  0  0  0  0  0  0  0  0  0  0  0
  -14.1973   11.1418  -26.0386 H   0  0  0  0  0  0  0  0  0  0  0  0
   -7.9802    9.6525  -24.5598 H   0  0  0  0  0  0  0  0  0  0  0  0
  -11.2866    7.7015  -28.2405 H   0  0  0  0  0  0  0  0  0  0  0  0
  -10.5437    6.4563  -27.2194 H   0  0  0  0  0  0  0  0  0  0  0  0
   -9.6799   13.4239  -25.5006 H   0  0  0  0  0  0  0  0  0  0  0  0
  -11.8157   14.8390  -22.1697 H   0  0  0  0  0  0  0  0  0  0  0  0
  1  2  1  0
  2  3  1  0
  3  4  1  0
  4  5  1  0
  5  6  1  0
  5  7  1  0
  7  8  1  0
  8  9  2  0
  9 10  1  0
 10 11  2  0
 11 12  1  0
 12 13  2  0
 13 14  1  0
 14 15  2  0
 15 16  1  0
  4 17  1  0
  3 18  1  0
  6  2  1  0
 11  7  1  0
 15 10  1  0
  1 19  1  0
  1 20  1  0
  2 21  1  0
  3 22  1  0
  4 23  1  0
  5 24  1  0
  8 25  1  0
 13 26  1  0
 16 27  1  0
 16 28  1  0
 17 29  1  0
 18 30  1  0
M  RAD  1   1   2
M  END
$$$$

     RDKit          3D

 30 32  0  0  0  0  0  0  0  0999 V2000
  -13.4009   14.0299  -22.3118 C   0  0  0  0  0  3  0  0  0  0  0  0
  -12.0753   13.6814  -22.9193 C   0  0  0  0  0  0  0  0  0  0  0  0
  -11.8106   14.6323  -24.0682 C   0  0  0  0  0  0  0  0  0  0  0  0
  -12.4888   13.9133  -25.2165 C   0  0  0  0  0  0  0  0  0  0  0  0
  -12.6639   12.5180  -24.7278 C   0  0  0  0  0  0  0  0  0  0  0  0
  -12.0578   12.4126  -23.4936 O   0  0  0  0  0  0  0  0  0  0  0  0
  -12.1286   11.5169  -25.6205 N   0  0  0  0  0  0  0  0  0  0  0  0
  -12.1966   11.4933  -26.9457 C   0  0  0  0  0  0  0  0  0  0  0  0
  -11.5741   10.3865  -27.4342 N   0  0  0  0  0  0  0  0  0  0  0  0
  -11.1129    9.7157  -26.3716 C   0  0  0  0  0  0  0  0  0  0  0  0
  -11.4567   10.4179  -25.2346 C   0  0  0  0  0  0  0  0  0  0  0  0
  -11.0840    9.9100  -24.0500 N   0  0  0  0  0  0  0  0  0  0  0  0
  -10.4007    8.7620  -23.9470 C   0  0  0  0  0  0  0  0  0  0  0  0
  -10.0712    8.0853  -25.0731 N   0  0  0  0  0  0  0  0  0  0  0  0
  -10.4108    8.5335  -26.2916 C   0  0  0  0  0  0  0  0  0  0  0  0
  -10.0253    7.7621  -27.4151 N   0  0  0  0  0  0  0  0  0  0  0  0
  -11.7120   14.0069  -26.3677 O   0  0  0  0  0  0  0  0  0  0  0  0
  -12.4569   15.8302  -23.7676 O   0  0  0  0  0  0  0  0  0  0  0  0
  -14.0276   13.1212  -22.2169 H   0  0  0  0  0  0  0  0  0  0  0  0
  -13.9025   14.8587  -22.8440 H   0  0  0  0  0  0  0  0  0  0  0  0
  -11.2794   13.7684  -22.1552 H   0  0  0  0  0  0  0  0  0  0  0  0
  -10.7251   14.7787  -24.2534 H   0  0  0  0  0  0  0  0  0  0  0  0
  -13.4533   14.4273  -25.3974 H   0  0  0  0  0  0  0  0  0  0  0  0
  -13.7664   12.3607  -24.5524 H   0  0  0  0  0  0  0  0  0  0  0  0
  -12.6623   12.2136  -27.6086 H   0  0  0  0  0  0  0  0  0  0  0  0
  -10.1240    8.3943  -22.9782 H   0  0  0  0  0  0  0  0  0  0  0  0
   -9.1501    7.9512  -27.9398 H   0  0  0  0  0  0  0  0  0  0  0  0
  -10.6300    6.9571  -27.7565 H   0  0  0  0  0  0  0  0  0  0  0  0
  -11.6329   14.9928  -26.5601 H   0  0  0  0  0  0  0  0  0  0  0  0
  -13.1316   16.0640  -24.4667 H   0  0  0  0  0  0  0  0  0  0  0  0
  1  2  1  0
  2  3  1  0
  3  4  1  0
  4  5  1  0
  5  6  1  0
  5  7  1  0
  7  8  1  0
  8  9  2  0
  9 10  1  0
 10 11  2  0
 11 12  1  0
 12 13  2  0
 13 14  1  0
 14 15  2  0
 15 16  1  0
  4 17  1  0
  3 18  1  0
  6  2  1  0
 11  7  1  0
 15 10  1  0
  1 19  1  0
  1 20  1  0
  2 21  1  0
  3 22  1  0
  4 23  1  0
  5 24  1  0
  8 25  1  0
 13 26  1  0
 16 27  1  0
 16 28  1  0
 17 29  1  0
 18 30  1  0
M  RAD  1   1   2
M  END
$$$$

     RDKit          3D

 30 32  0  0  0  0  0  0  0  0999 V2000
  -14.7159   14.0134  -24.2243 C   0  0  0  0  0  3  0  0  0  0  0  0
  -13.3140   14.4824  -24.5892 C   0  0  0  0  0  0  0  0  0  0  0  0
  -12.4688   14.3460  -23.3561 C   0  0  0  0  0  0  0  0  0  0  0  0
  -11.6778   13.0896  -23.6218 C   0  0  0  0  0  0  0  0  0  0  0  0
  -11.7433   12.9779  -25.1171 C   0  0  0  0  0  0  0  0  0  0  0  0
  -12.8177   13.6819  -25.5657 O   0  0  0  0  0  0  0  0  0  0  0  0
  -11.9442   11.5748  -25.4609 N   0  0  0  0  0  0  0  0  0  0  0  0
  -13.0906   10.9277  -25.7043 C   0  0  0  0  0  0  0  0  0  0  0  0
  -12.8516    9.6352  -25.9869 N   0  0  0  0  0  0  0  0  0  0  0  0
  -11.5456    9.4405  -25.9272 C   0  0  0  0  0  0  0  0  0  0  0  0
  -10.9620   10.6680  -25.5936 C   0  0  0  0  0  0  0  0  0  0  0  0
   -9.6259   10.6996  -25.4787 N   0  0  0  0  0  0  0  0  0  0  0  0
   -8.8474    9.6222  -25.6677 C   0  0  0  0  0  0  0  0  0  0  0  0
   -9.4453    8.4593  -25.9873 N   0  0  0  0  0  0  0  0  0  0  0  0
  -10.7723    8.3186  -26.1270 C   0  0  0  0  0  0  0  0  0  0  0  0
  -11.3670    7.0800  -26.4641 N   0  0  0  0  0  0  0  0  0  0  0  0
  -10.3532   13.1924  -23.2014 O   0  0  0  0  0  0  0  0  0  0  0  0
  -11.5843   15.3984  -23.1827 O   0  0  0  0  0  0  0  0  0  0  0  0
  -15.1967   13.4510  -25.0216 H   0  0  0  0  0  0  0  0  0  0  0  0
  -15.2664   14.8785  -23.8553 H   0  0  0  0  0  0  0  0  0  0  0  0
  -13.4019   15.5286  -24.9436 H   0  0  0  0  0  0  0  0  0  0  0  0
  -13.0587   14.1768  -22.4313 H   0  0  0  0  0  0  0  0  0  0  0  0
  -12.1298   12.2058  -23.1492 H   0  0  0  0  0  0  0  0  0  0  0  0
  -10.8106   13.3806  -25.5542 H   0  0  0  0  0  0  0  0  0  0  0  0
  -14.0666   11.4237  -25.6670 H   0  0  0  0  0  0  0  0  0  0  0  0
   -7.7547    9.6774  -25.5668 H   0  0  0  0  0  0  0  0  0  0  0  0
  -11.9228    6.5119  -25.8073 H   0  0  0  0  0  0  0  0  0  0  0  0
  -11.2338    6.7238  -27.4328 H   0  0  0  0  0  0  0  0  0  0  0  0
   -9.9610   13.9421  -23.7461 H   0  0  0  0  0  0  0  0  0  0  0  0
  -11.6533   16.0449  -23.9244 H   0  0  0  0  0  0  0  0  0  0  0  0
  1  2  1  0
  2  3  1  0
  3  4  1  0
  4  5  1  0
  5  6  1  0
  5  7  1  0
  7  8  1  0
  8  9  2  0
  9 10  1  0
 10 11  2  0
 11 12  1  0
 12 13  2  0
 13 14  1  0
 14 15  2  0
 15 16  1  0
  4 17  1  0
  3 18  1  0
  6  2  1  0
 11  7  1  0
 15 10  1  0
  1 19  1  0
  1 20  1  0
  2 21  1  0
  3 22  1  0
  4 23  1  0
  5 24  1  0
  8 25  1  0
 13 26  1  0
 16 27  1  0
 16 28  1  0
 17 29  1  0
 18 30  1  0
M  RAD  1   1   2
M  END
$$$$

     RDKit          3D

 30 32  0  0  0  0  0  0  0  0999 V2000
  -13.6870   15.8712  -24.8050 C   0  0  0  0  0  3  0  0  0  0  0  0
  -12.6067   14.8585  -24.8166 C   0  0  0  0  0  0  0  0  0  0  0  0
  -12.0142   14.5443  -23.4807 C   0  0  0  0  0  0  0  0  0  0  0  0
  -11.3993   13.1732  -23.7180 C   0  0  0  0  0  0  0  0  0  0  0  0
  -11.8363   12.8707  -25.1183 C   0  0  0  0  0  0  0  0  0  0  0  0
  -13.0139   13.6008  -25.2691 O   0  0  0  0  0  0  0  0  0  0  0  0
  -11.9962   11.4780  -25.3891 N   0  0  0  0  0  0  0  0  0  0  0  0
  -13.1194   10.7362  -25.4315 C   0  0  0  0  0  0  0  0  0  0  0  0
  -12.7829    9.4633  -25.7264 N   0  0  0  0  0  0  0  0  0  0  0  0
  -11.4570    9.3641  -25.8771 C   0  0  0  0  0  0  0  0  0  0  0  0
  -10.9635   10.6442  -25.6622 C   0  0  0  0  0  0  0  0  0  0  0  0
   -9.6263   10.7794  -25.7657 N   0  0  0  0  0  0  0  0  0  0  0  0
   -8.7989    9.7599  -26.0567 C   0  0  0  0  0  0  0  0  0  0  0  0
   -9.2824    8.5215  -26.2640 N   0  0  0  0  0  0  0  0  0  0  0  0
  -10.6088    8.3179  -26.1757 C   0  0  0  0  0  0  0  0  0  0  0  0
  -11.0890    6.9997  -26.3997 N   0  0  0  0  0  0  0  0  0  0  0  0
  -11.8762   12.2309  -22.8148 O   0  0  0  0  0  0  0  0  0  0  0  0
  -12.9690   14.3943  -22.4854 O   0  0  0  0  0  0  0  0  0  0  0  0
  -13.7394   16.4293  -25.7568 H   0  0  0  0  0  0  0  0  0  0  0  0
  -14.6453   15.5585  -24.4025 H   0  0  0  0  0  0  0  0  0  0  0  0
  -11.8015   15.1997  -25.4981 H   0  0  0  0  0  0  0  0  0  0  0  0
  -11.2296   15.2797  -23.2010 H   0  0  0  0  0  0  0  0  0  0  0  0
  -10.2953   13.2546  -23.6668 H   0  0  0  0  0  0  0  0  0  0  0  0
  -11.0708   13.3438  -25.8005 H   0  0  0  0  0  0  0  0  0  0  0  0
  -14.1009   11.1271  -25.2546 H   0  0  0  0  0  0  0  0  0  0  0  0
   -7.7244    9.8792  -26.1377 H   0  0  0  0  0  0  0  0  0  0  0  0
  -10.5408    6.2050  -26.0159 H   0  0  0  0  0  0  0  0  0  0  0  0
  -11.9604    6.7762  -26.9270 H   0  0  0  0  0  0  0  0  0  0  0  0
  -11.5610   12.4815  -21.9213 H   0  0  0  0  0  0  0  0  0  0  0  0
  -13.8708   14.5824  -22.7871 H   0  0  0  0  0  0  0  0  0  0  0  0
  1  2  1  0
  2  3  1  0
  3  4  1  0
  4  5  1  0
  5  6  1  0
  5  7  1  0
  7  8  1  0
  8  9  2  0
  9 10  1  0
 10 11  2  0
 11 12  1  0
 12 13  2  0
 13 14  1  0
 14 15  2  0
 15 16  1  0
  4 17  1  0
  3 18  1  0
  6  2  1  0
 11  7  1  0
 15 10  1  0
  1 19  1  0
  1 20  1  0
  2 21  1  0
  3 22  1  0
  4 23  1  0
  5 24  1  0
  8 25  1  0
 13 26  1  0
 16 27  1  0
 16 28  1  0
 17 29  1  0
 18 30  1  0
M  RAD  1   1   2
M  END
$$$$

     RDKit          3D

 30 32  0  0  0  0  0  0  0  0999 V2000
  -10.6342   15.5006  -23.4500 C   0  0  0  0  0  3  0  0  0  0  0  0
  -11.4828   14.5504  -24.2592 C   0  0  0  0  0  0  0  0  0  0  0  0
  -12.9192   14.5288  -23.7693 C   0  0  0  0  0  0  0  0  0  0  0  0
  -13.3779   13.2132  -24.4155 C   0  0  0  0  0  0  0  0  0  0  0  0
  -12.1214   12.4055  -24.2847 C   0  0  0  0  0  0  0  0  0  0  0  0
  -11.0546   13.2515  -24.1996 O   0  0  0  0  0  0  0  0  0  0  0  0
  -11.9473   11.4423  -25.3374 N   0  0  0  0  0  0  0  0  0  0  0  0
  -12.4664   11.3806  -26.5683 C   0  0  0  0  0  0  0  0  0  0  0  0
  -12.0088   10.2811  -27.2018 N   0  0  0  0  0  0  0  0  0  0  0  0
  -11.1757    9.6162  -26.3637 C   0  0  0  0  0  0  0  0  0  0  0  0
  -11.1509   10.3569  -25.2064 C   0  0  0  0  0  0  0  0  0  0  0  0
  -10.3787    9.8968  -24.1975 N   0  0  0  0  0  0  0  0  0  0  0  0
   -9.6688    8.7545  -24.3410 C   0  0  0  0  0  0  0  0  0  0  0  0
   -9.6997    8.0299  -25.4879 N   0  0  0  0  0  0  0  0  0  0  0  0
  -10.4536    8.4501  -26.5162 C   0  0  0  0  0  0  0  0  0  0  0  0
  -10.4768    7.6832  -27.7090 N   0  0  0  0  0  0  0  0  0  0  0  0
  -14.4551   12.6645  -23.7601 O   0  0  0  0  0  0  0  0  0  0  0  0
  -13.6550   15.6019  -24.1885 O   0  0  0  0  0  0  0  0  0  0  0  0
  -10.8633   15.4671  -22.3653 H   0  0  0  0  0  0  0  0  0  0  0  0
  -10.5979   16.5125  -23.8700 H   0  0  0  0  0  0  0  0  0  0  0  0
  -11.5195   14.9225  -25.3199 H   0  0  0  0  0  0  0  0  0  0  0  0
  -12.8866   14.3858  -22.6721 H   0  0  0  0  0  0  0  0  0  0  0  0
  -13.6119   13.4648  -25.4648 H   0  0  0  0  0  0  0  0  0  0  0  0
  -12.1951   11.8640  -23.2960 H   0  0  0  0  0  0  0  0  0  0  0  0
  -13.1472   12.1044  -26.9841 H   0  0  0  0  0  0  0  0  0  0  0  0
   -9.0429    8.3657  -23.5467 H   0  0  0  0  0  0  0  0  0  0  0  0
  -11.1407    6.8835  -27.7920 H   0  0  0  0  0  0  0  0  0  0  0  0
   -9.8419    7.9095  -28.4965 H   0  0  0  0  0  0  0  0  0  0  0  0
  -15.1034   12.3704  -24.4662 H   0  0  0  0  0  0  0  0  0  0  0  0
  -14.3627   15.4124  -24.8340 H   0  0  0  0  0  0  0  0  0  0  0  0
  1  2  1  0
  2  3  1  0
  3  4  1  0
  4  5  1  0
  5  6  1  0
  5  7  1  0
  7  8  1  0
  8  9  2  0
  9 10  1  0
 10 11  2  0
 11 12  1  0
 12 13  2  0
 13 14  1  0
 14 15  2  0
 15 16  1  0
  4 17  1  0
  3 18  1  0
  6  2  1  0
 11  7  1  0
 15 10  1  0
  1 19  1  0
  1 20  1  0
  2 21  1  0
  3 22  1  0
  4 23  1  0
  5 24  1  0
  8 25  1  0
 13 26  1  0
 16 27  1  0
 16 28  1  0
 17 29  1  0
 18 30  1  0
M  RAD  1   1   2
M  END
$$$$

     RDKit          3D

 30 32  0  0  0  0  0  0  0  0999 V2000
  -13.9497   14.2669  -23.2944 C   0  0  0  0  0  3  0  0  0  0  0  0
  -13.2511   14.5249  -24.5995 C   0  0  0  0  0  0  0  0  0  0  0  0
  -11.7622   14.7428  -24.4353 C   0  0  0  0  0  0  0  0  0  0  0  0
  -11.2473   13.3021  -24.3844 C   0  0  0  0  0  0  0  0  0  0  0  0
  -12.5003   12.5047  -24.5201 C   0  0  0  0  0  0  0  0  0  0  0  0
  -13.2852   13.3446  -25.3425 O   0  0  0  0  0  0  0  0  0  0  0  0
  -12.3522   11.2498  -25.1745 N   0  0  0  0  0  0  0  0  0  0  0  0
  -13.3536   10.5444  -25.7259 C   0  0  0  0  0  0  0  0  0  0  0  0
  -12.8399    9.3956  -26.2610 N   0  0  0  0  0  0  0  0  0  0  0  0
  -11.5171    9.3907  -26.0397 C   0  0  0  0  0  0  0  0  0  0  0  0
  -11.2254   10.5643  -25.3549 C   0  0  0  0  0  0  0  0  0  0  0  0
   -9.9572   10.8127  -25.0058 N   0  0  0  0  0  0  0  0  0  0  0  0
   -8.9830    9.9118  -25.3287 C   0  0  0  0  0  0  0  0  0  0  0  0
   -9.2708    8.7729  -25.9941 N   0  0  0  0  0  0  0  0  0  0  0  0
  -10.5517    8.4784  -26.3703 C   0  0  0  0  0  0  0  0  0  0  0  0
  -10.8603    7.2806  -27.0710 N   0  0  0  0  0  0  0  0  0  0  0  0
  -10.7088   13.1076  -23.1135 O   0  0  0  0  0  0  0  0  0  0  0  0
  -11.5113   15.4132  -23.2402 O   0  0  0  0  0  0  0  0  0  0  0  0
  -14.3164   15.1955  -22.8120 H   0  0  0  0  0  0  0  0  0  0  0  0
  -14.8097   13.5744  -23.5316 H   0  0  0  0  0  0  0  0  0  0  0  0
  -13.7373   15.3621  -25.1421 H   0  0  0  0  0  0  0  0  0  0  0  0
  -11.3936   15.2764  -25.3169 H   0  0  0  0  0  0  0  0  0  0  0  0
  -10.5024   13.1222  -25.1870 H   0  0  0  0  0  0  0  0  0  0  0  0
  -12.9750   12.4200  -23.5123 H   0  0  0  0  0  0  0  0  0  0  0  0
  -14.4063   10.8137  -25.7583 H   0  0  0  0  0  0  0  0  0  0  0  0
   -7.9473   10.0792  -25.0628 H   0  0  0  0  0  0  0  0  0  0  0  0
  -11.5424    6.6173  -26.6480 H   0  0  0  0  0  0  0  0  0  0  0  0
  -10.4441    7.0193  -27.9912 H   0  0  0  0  0  0  0  0  0  0  0  0
  -11.4992   13.1189  -22.4876 H   0  0  0  0  0  0  0  0  0  0  0  0
  -12.2037   16.0779  -23.0644 H   0  0  0  0  0  0  0  0  0  0  0  0
  1  2  1  0
  2  3  1  0
  3  4  1  0
  4  5  1  0
  5  6  1  0
  5  7  1  0
  7  8  1  0
  8  9  2  0
  9 10  1  0
 10 11  2  0
 11 12  1  0
 12 13  2  0
 13 14  1  0
 14 15  2  0
 15 16  1  0
  4 17  1  0
  3 18  1  0
  6  2  1  0
 11  7  1  0
 15 10  1  0
  1 19  1  0
  1 20  1  0
  2 21  1  0
  3 22  1  0
  4 23  1  0
  5 24  1  0
  8 25  1  0
 13 26  1  0
 16 27  1  0
 16 28  1  0
 17 29  1  0
 18 30  1  0
M  RAD  1   1   2
M  END
$$$$

     RDKit          3D

 30 32  0  0  0  0  0  0  0  0999 V2000
  -14.2211   15.3776  -23.9881 C   0  0  0  0  0  3  0  0  0  0  0  0
  -13.3152   14.2221  -23.6623 C   0  0  0  0  0  0  0  0  0  0  0  0
  -11.8641   14.5433  -23.8203 C   0  0  0  0  0  0  0  0  0  0  0  0
  -11.2597   13.1882  -24.1712 C   0  0  0  0  0  0  0  0  0  0  0  0
  -12.4839   12.2848  -24.1220 C   0  0  0  0  0  0  0  0  0  0  0  0
  -13.5108   13.1369  -24.5331 O   0  0  0  0  0  0  0  0  0  0  0  0
  -12.3522   11.1371  -24.9797 N   0  0  0  0  0  0  0  0  0  0  0  0
  -13.3199   10.4876  -25.6385 C   0  0  0  0  0  0  0  0  0  0  0  0
  -12.7989    9.4639  -26.3365 N   0  0  0  0  0  0  0  0  0  0  0  0
  -11.4839    9.4402  -26.1360 C   0  0  0  0  0  0  0  0  0  0  0  0
  -11.2021   10.4894  -25.2849 C   0  0  0  0  0  0  0  0  0  0  0  0
   -9.9268   10.6948  -24.9154 N   0  0  0  0  0  0  0  0  0  0  0  0
   -8.9302    9.9043  -25.3556 C   0  0  0  0  0  0  0  0  0  0  0  0
   -9.2277    8.8884  -26.1837 N   0  0  0  0  0  0  0  0  0  0  0  0
  -10.4671    8.6021  -26.6092 C   0  0  0  0  0  0  0  0  0  0  0  0
  -10.7304    7.5307  -27.4742 N   0  0  0  0  0  0  0  0  0  0  0  0
  -10.3698   12.7462  -23.2135 O   0  0  0  0  0  0  0  0  0  0  0  0
  -11.6631   15.4704  -24.8319 O   0  0  0  0  0  0  0  0  0  0  0  0
  -14.7763   15.6395  -23.0626 H   0  0  0  0  0  0  0  0  0  0  0  0
  -13.7089   16.2108  -24.4635 H   0  0  0  0  0  0  0  0  0  0  0  0
  -13.4740   13.8288  -22.6388 H   0  0  0  0  0  0  0  0  0  0  0  0
  -11.3780   14.8595  -22.8756 H   0  0  0  0  0  0  0  0  0  0  0  0
  -10.8282   13.2165  -25.1901 H   0  0  0  0  0  0  0  0  0  0  0  0
  -12.6670   12.0165  -23.0555 H   0  0  0  0  0  0  0  0  0  0  0  0
  -14.3654   10.7770  -25.5905 H   0  0  0  0  0  0  0  0  0  0  0  0
   -7.8898   10.0886  -25.0413 H   0  0  0  0  0  0  0  0  0  0  0  0
  -10.8352    6.5642  -27.1063 H   0  0  0  0  0  0  0  0  0  0  0  0
  -10.8198    7.7170  -28.4933 H   0  0  0  0  0  0  0  0  0  0  0  0
  -10.8829   12.3046  -22.4898 H   0  0  0  0  0  0  0  0  0  0  0  0
  -12.2632   15.2680  -25.5862 H   0  0  0  0  0  0  0  0  0  0  0  0
  1  2  1  0
  2  3  1  0
  3  4  1  0
  4  5  1  0
  5  6  1  0
  5  7  1  0
  7  8  1  0
  8  9  2  0
  9 10  1  0
 10 11  2  0
 11 12  1  0
 12 13  2  0
 13 14  1  0
 14 15  2  0
 15 16  1  0
  4 17  1  0
  3 18  1  0
  6  2  1  0
 11  7  1  0
 15 10  1  0
  1 19  1  0
  1 20  1  0
  2 21  1  0
  3 22  1  0
  4 23  1  0
  5 24  1  0
  8 25  1  0
 13 26  1  0
 16 27  1  0
 16 28  1  0
 17 29  1  0
 18 30  1  0
M  RAD  1   1   2
M  END
$$$$

     RDKit          3D

 30 32  0  0  0  0  0  0  0  0999 V2000
  -11.0133   14.8087  -22.6304 C   0  0  0  0  0  3  0  0  0  0  0  0
  -11.4442   13.4808  -23.2550 C   0  0  0  0  0  0  0  0  0  0  0  0
  -12.9343   13.4563  -23.3756 C   0  0  0  0  0  0  0  0  0  0  0  0
  -13.1867   13.1617  -24.8148 C   0  0  0  0  0  0  0  0  0  0  0  0
  -11.8345   13.1136  -25.4282 C   0  0  0  0  0  0  0  0  0  0  0  0
  -10.8906   13.4104  -24.4976 O   0  0  0  0  0  0  0  0  0  0  0  0
  -11.5647   11.8214  -26.0739 N   0  0  0  0  0  0  0  0  0  0  0  0
  -11.6001   11.5651  -27.3940 C   0  0  0  0  0  0  0  0  0  0  0  0
  -11.2947   10.2573  -27.6119 N   0  0  0  0  0  0  0  0  0  0  0  0
  -11.0612    9.6682  -26.4241 C   0  0  0  0  0  0  0  0  0  0  0  0
  -11.2352   10.6613  -25.4822 C   0  0  0  0  0  0  0  0  0  0  0  0
  -11.0632   10.3564  -24.1801 N   0  0  0  0  0  0  0  0  0  0  0  0
  -10.7279    9.0983  -23.8352 C   0  0  0  0  0  0  0  0  0  0  0  0
  -10.5587    8.1290  -24.7635 N   0  0  0  0  0  0  0  0  0  0  0  0
  -10.7169    8.3736  -26.0773 C   0  0  0  0  0  0  0  0  0  0  0  0
  -10.5433    7.3680  -27.0666 N   0  0  0  0  0  0  0  0  0  0  0  0
  -13.9763   14.1952  -25.3601 O   0  0  0  0  0  0  0  0  0  0  0  0
  -13.4812   14.6829  -22.9855 O   0  0  0  0  0  0  0  0  0  0  0  0
   -9.9071   14.7077  -22.4748 H   0  0  0  0  0  0  0  0  0  0  0  0
  -11.1291   15.5664  -23.4414 H   0  0  0  0  0  0  0  0  0  0  0  0
  -11.0665   12.6765  -22.5758 H   0  0  0  0  0  0  0  0  0  0  0  0
  -13.3172   12.6495  -22.7093 H   0  0  0  0  0  0  0  0  0  0  0  0
  -13.6961   12.1915  -24.9732 H   0  0  0  0  0  0  0  0  0  0  0  0
  -11.7898   13.9018  -26.2276 H   0  0  0  0  0  0  0  0  0  0  0  0
  -11.8401   12.3101  -28.1547 H   0  0  0  0  0  0  0  0  0  0  0  0
  -10.5798    8.8131  -22.7898 H   0  0  0  0  0  0  0  0  0  0  0  0
  -10.8074    6.3879  -26.8328 H   0  0  0  0  0  0  0  0  0  0  0  0
  -10.1661    7.5399  -28.0228 H   0  0  0  0  0  0  0  0  0  0  0  0
  -13.7301   15.0731  -24.9752 H   0  0  0  0  0  0  0  0  0  0  0  0
  -14.4689   14.6287  -23.0519 H   0  0  0  0  0  0  0  0  0  0  0  0
  1  2  1  0
  2  3  1  0
  3  4  1  0
  4  5  1  0
  5  6  1  0
  5  7  1  0
  7  8  1  0
  8  9  2  0
  9 10  1  0
 10 11  2  0
 11 12  1  0
 12 13  2  0
 13 14  1  0
 14 15  2  0
 15 16  1  0
  4 17  1  0
  3 18  1  0
  6  2  1  0
 11  7  1  0
 15 10  1  0
  1 19  1  0
  1 20  1  0
  2 21  1  0
  3 22  1  0
  4 23  1  0
  5 24  1  0
  8 25  1  0
 13 26  1  0
 16 27  1  0
 16 28  1  0
 17 29  1  0
 18 30  1  0
M  RAD  1   1   2
M  END
$$$$

     RDKit          3D

 30 32  0  0  0  0  0  0  0  0999 V2000
  -13.4152   13.6846  -22.0317 C   0  0  0  0  0  3  0  0  0  0  0  0
  -13.2186   13.9297  -23.4960 C   0  0  0  0  0  0  0  0  0  0  0  0
  -11.8243   14.3456  -23.8636 C   0  0  0  0  0  0  0  0  0  0  0  0
  -11.7119   13.8831  -25.2930 C   0  0  0  0  0  0  0  0  0  0  0  0
  -12.8466   12.9079  -25.4518 C   0  0  0  0  0  0  0  0  0  0  0  0
  -13.4526   12.7782  -24.2010 O   0  0  0  0  0  0  0  0  0  0  0  0
  -12.4164   11.6383  -25.9789 N   0  0  0  0  0  0  0  0  0  0  0  0
  -12.8956   11.0452  -27.0855 C   0  0  0  0  0  0  0  0  0  0  0  0
  -12.2481    9.8817  -27.2483 N   0  0  0  0  0  0  0  0  0  0  0  0
  -11.3517    9.6955  -26.2716 C   0  0  0  0  0  0  0  0  0  0  0  0
  -11.4713   10.8297  -25.4659 C   0  0  0  0  0  0  0  0  0  0  0  0
  -10.6651   10.8893  -24.3959 N   0  0  0  0  0  0  0  0  0  0  0  0
   -9.7957    9.9199  -24.1143 C   0  0  0  0  0  0  0  0  0  0  0  0
   -9.6857    8.8203  -24.9031 N   0  0  0  0  0  0  0  0  0  0  0  0
  -10.4570    8.6816  -25.9957 C   0  0  0  0  0  0  0  0  0  0  0  0
  -10.3437    7.5262  -26.8274 N   0  0  0  0  0  0  0  0  0  0  0  0
  -10.4771   13.3242  -25.5846 O   0  0  0  0  0  0  0  0  0  0  0  0
  -10.8505   13.8268  -23.0476 O   0  0  0  0  0  0  0  0  0  0  0  0
  -12.8207   14.3361  -21.3785 H   0  0  0  0  0  0  0  0  0  0  0  0
  -13.2062   12.5916  -21.8486 H   0  0  0  0  0  0  0  0  0  0  0  0
  -13.9126   14.7197  -23.8667 H   0  0  0  0  0  0  0  0  0  0  0  0
  -11.7690   15.4662  -23.7965 H   0  0  0  0  0  0  0  0  0  0  0  0
  -11.8439   14.7540  -25.9550 H   0  0  0  0  0  0  0  0  0  0  0  0
  -13.6087   13.3609  -26.1191 H   0  0  0  0  0  0  0  0  0  0  0  0
  -13.6628   11.3897  -27.7652 H   0  0  0  0  0  0  0  0  0  0  0  0
   -9.1375    9.9544  -23.2527 H   0  0  0  0  0  0  0  0  0  0  0  0
  -10.5913    7.6118  -27.8362 H   0  0  0  0  0  0  0  0  0  0  0  0
  -10.0277    6.6077  -26.4775 H   0  0  0  0  0  0  0  0  0  0  0  0
   -9.7746   13.7921  -25.0906 H   0  0  0  0  0  0  0  0  0  0  0  0
  -11.1348   13.1136  -22.4554 H   0  0  0  0  0  0  0  0  0  0  0  0
  1  2  1  0
  2  3  1  0
  3  4  1  0
  4  5  1  0
  5  6  1  0
  5  7  1  0
  7  8  1  0
  8  9  2  0
  9 10  1  0
 10 11  2  0
 11 12  1  0
 12 13  2  0
 13 14  1  0
 14 15  2  0
 15 16  1  0
  4 17  1  0
  3 18  1  0
  6  2  1  0
 11  7  1  0
 15 10  1  0
  1 19  1  0
  1 20  1  0
  2 21  1  0
  3 22  1  0
  4 23  1  0
  5 24  1  0
  8 25  1  0
 13 26  1  0
 16 27  1  0
 16 28  1  0
 17 29  1  0
 18 30  1  0
M  RAD  1   1   2
M  END
$$$$

     RDKit          3D

 30 32  0  0  0  0  0  0  0  0999 V2000
  -11.7343   14.0900  -21.8566 C   0  0  0  0  0  3  0  0  0  0  0  0
  -12.1276   13.2126  -23.0264 C   0  0  0  0  0  0  0  0  0  0  0  0
  -13.2724   13.8090  -23.8033 C   0  0  0  0  0  0  0  0  0  0  0  0
  -12.9278   13.4214  -25.2203 C   0  0  0  0  0  0  0  0  0  0  0  0
  -11.4648   13.1117  -25.1623 C   0  0  0  0  0  0  0  0  0  0  0  0
  -11.0606   13.0857  -23.8610 O   0  0  0  0  0  0  0  0  0  0  0  0
  -11.1385   11.8846  -25.8862 N   0  0  0  0  0  0  0  0  0  0  0  0
  -10.7070   11.7492  -27.1536 C   0  0  0  0  0  0  0  0  0  0  0  0
  -10.5167   10.4471  -27.4537 N   0  0  0  0  0  0  0  0  0  0  0  0
  -10.8270    9.7214  -26.3706 C   0  0  0  0  0  0  0  0  0  0  0  0
  -11.2121   10.6295  -25.4037 C   0  0  0  0  0  0  0  0  0  0  0  0
  -11.5771   10.1460  -24.2070 N   0  0  0  0  0  0  0  0  0  0  0  0
  -11.5707    8.8255  -23.9508 C   0  0  0  0  0  0  0  0  0  0  0  0
  -11.1901    7.9519  -24.9114 N   0  0  0  0  0  0  0  0  0  0  0  0
  -10.8096    8.3575  -26.1385 C   0  0  0  0  0  0  0  0  0  0  0  0
  -10.4061    7.4554  -27.1622 N   0  0  0  0  0  0  0  0  0  0  0  0
  -13.2219   14.5183  -26.0330 O   0  0  0  0  0  0  0  0  0  0  0  0
  -13.3627   15.1913  -23.6554 O   0  0  0  0  0  0  0  0  0  0  0  0
  -11.2232   13.4021  -21.1239 H   0  0  0  0  0  0  0  0  0  0  0  0
  -11.0264   14.8678  -22.1587 H   0  0  0  0  0  0  0  0  0  0  0  0
  -12.4921   12.2577  -22.5950 H   0  0  0  0  0  0  0  0  0  0  0  0
  -14.2510   13.3725  -23.5600 H   0  0  0  0  0  0  0  0  0  0  0  0
  -13.5339   12.5738  -25.5887 H   0  0  0  0  0  0  0  0  0  0  0  0
  -10.9350   13.9783  -25.6583 H   0  0  0  0  0  0  0  0  0  0  0  0
  -10.5505   12.6225  -27.8057 H   0  0  0  0  0  0  0  0  0  0  0  0
  -11.8729    8.4412  -22.9634 H   0  0  0  0  0  0  0  0  0  0  0  0
   -9.4029    7.3265  -27.4148 H   0  0  0  0  0  0  0  0  0  0  0  0
  -11.1137    6.9151  -27.6686 H   0  0  0  0  0  0  0  0  0  0  0  0
  -13.1485   14.3189  -26.9810 H   0  0  0  0  0  0  0  0  0  0  0  0
  -12.9316   15.4371  -22.7907 H   0  0  0  0  0  0  0  0  0  0  0  0
  1  2  1  0
  2  3  1  0
  3  4  1  0
  4  5  1  0
  5  6  1  0
  5  7  1  0
  7  8  1  0
  8  9  2  0
  9 10  1  0
 10 11  2  0
 11 12  1  0
 12 13  2  0
 13 14  1  0
 14 15  2  0
 15 16  1  0
  4 17  1  0
  3 18  1  0
  6  2  1  0
 11  7  1  0
 15 10  1  0
  1 19  1  0
  1 20  1  0
  2 21  1  0
  3 22  1  0
  4 23  1  0
  5 24  1  0
  8 25  1  0
 13 26  1  0
 16 27  1  0
 16 28  1  0
 17 29  1  0
 18 30  1  0
M  RAD  1   1   2
M  END
$$$$

     RDKit          3D

 30 32  0  0  0  0  0  0  0  0999 V2000
  -11.0316   15.1248  -22.8352 C   0  0  0  0  0  3  0  0  0  0  0  0
  -11.3624   14.2406  -24.0332 C   0  0  0  0  0  0  0  0  0  0  0  0
  -12.6883   14.5426  -24.6204 C   0  0  0  0  0  0  0  0  0  0  0  0
  -13.4583   13.2608  -24.4151 C   0  0  0  0  0  0  0  0  0  0  0  0
  -12.4036   12.2621  -24.1632 C   0  0  0  0  0  0  0  0  0  0  0  0
  -11.2957   12.9391  -23.6491 O   0  0  0  0  0  0  0  0  0  0  0  0
  -11.9696   11.4755  -25.2531 N   0  0  0  0  0  0  0  0  0  0  0  0
  -12.1241   11.6912  -26.5700 C   0  0  0  0  0  0  0  0  0  0  0  0
  -11.5439   10.6697  -27.2188 N   0  0  0  0  0  0  0  0  0  0  0  0
  -11.0182    9.7999  -26.3348 C   0  0  0  0  0  0  0  0  0  0  0  0
  -11.2854   10.3063  -25.0803 C   0  0  0  0  0  0  0  0  0  0  0  0
  -10.8522    9.6020  -24.0273 N   0  0  0  0  0  0  0  0  0  0  0  0
  -10.1798    8.4423  -24.1443 C   0  0  0  0  0  0  0  0  0  0  0  0
   -9.9106    7.9337  -25.3634 N   0  0  0  0  0  0  0  0  0  0  0  0
  -10.3246    8.6038  -26.4516 C   0  0  0  0  0  0  0  0  0  0  0  0
  -10.0611    8.1021  -27.7460 N   0  0  0  0  0  0  0  0  0  0  0  0
  -14.3355   13.0032  -25.4213 O   0  0  0  0  0  0  0  0  0  0  0  0
  -13.2822   15.6083  -23.9290 O   0  0  0  0  0  0  0  0  0  0  0  0
  -10.5437   14.5114  -22.0514 H   0  0  0  0  0  0  0  0  0  0  0  0
  -10.3549   15.9587  -23.1222 H   0  0  0  0  0  0  0  0  0  0  0  0
  -10.5835   14.4795  -24.8142 H   0  0  0  0  0  0  0  0  0  0  0  0
  -12.6474   14.8413  -25.6906 H   0  0  0  0  0  0  0  0  0  0  0  0
  -14.0609   13.4158  -23.4783 H   0  0  0  0  0  0  0  0  0  0  0  0
  -12.7470   11.5858  -23.3434 H   0  0  0  0  0  0  0  0  0  0  0  0
  -12.6351   12.5545  -26.9601 H   0  0  0  0  0  0  0  0  0  0  0  0
   -9.8290    7.8718  -23.2952 H   0  0  0  0  0  0  0  0  0  0  0  0
  -10.2211    8.6752  -28.5990 H   0  0  0  0  0  0  0  0  0  0  0  0
   -9.6959    7.1380  -27.9001 H   0  0  0  0  0  0  0  0  0  0  0  0
  -15.2110   12.7344  -25.0947 H   0  0  0  0  0  0  0  0  0  0  0  0
  -12.9962   16.4701  -24.2697 H   0  0  0  0  0  0  0  0  0  0  0  0
  1  2  1  0
  2  3  1  0
  3  4  1  0
  4  5  1  0
  5  6  1  0
  5  7  1  0
  7  8  1  0
  8  9  2  0
  9 10  1  0
 10 11  2  0
 11 12  1  0
 12 13  2  0
 13 14  1  0
 14 15  2  0
 15 16  1  0
  4 17  1  0
  3 18  1  0
  6  2  1  0
 11  7  1  0
 15 10  1  0
  1 19  1  0
  1 20  1  0
  2 21  1  0
  3 22  1  0
  4 23  1  0
  5 24  1  0
  8 25  1  0
 13 26  1  0
 16 27  1  0
 16 28  1  0
 17 29  1  0
 18 30  1  0
M  RAD  1   1   2
M  END
$$$$

     RDKit          3D

 30 32  0  0  0  0  0  0  0  0999 V2000
  -12.9423   13.9384  -21.8177 C   0  0  0  0  0  3  0  0  0  0  0  0
  -13.1140   13.8667  -23.3247 C   0  0  0  0  0  0  0  0  0  0  0  0
  -12.1148   14.7385  -24.0427 C   0  0  0  0  0  0  0  0  0  0  0  0
  -11.3823   13.7112  -24.9165 C   0  0  0  0  0  0  0  0  0  0  0  0
  -12.5541   12.7441  -25.1218 C   0  0  0  0  0  0  0  0  0  0  0  0
  -12.9931   12.5882  -23.8206 O   0  0  0  0  0  0  0  0  0  0  0  0
  -12.1919   11.5565  -25.7892 N   0  0  0  0  0  0  0  0  0  0  0  0
  -12.6860   11.1848  -27.0077 C   0  0  0  0  0  0  0  0  0  0  0  0
  -12.1554   10.0250  -27.3654 N   0  0  0  0  0  0  0  0  0  0  0  0
  -11.3262    9.6550  -26.3828 C   0  0  0  0  0  0  0  0  0  0  0  0
  -11.3426   10.6189  -25.3798 C   0  0  0  0  0  0  0  0  0  0  0  0
  -10.5763   10.4195  -24.3192 N   0  0  0  0  0  0  0  0  0  0  0  0
   -9.7967    9.3447  -24.1723 C   0  0  0  0  0  0  0  0  0  0  0  0
   -9.7685    8.4032  -25.1317 N   0  0  0  0  0  0  0  0  0  0  0  0
  -10.5293    8.5471  -26.2424 C   0  0  0  0  0  0  0  0  0  0  0  0
  -10.5308    7.5770  -27.2819 N   0  0  0  0  0  0  0  0  0  0  0  0
  -10.3726   13.0853  -24.1758 O   0  0  0  0  0  0  0  0  0  0  0  0
  -12.7502   15.6038  -24.9638 O   0  0  0  0  0  0  0  0  0  0  0  0
  -13.9487   13.9031  -21.3347 H   0  0  0  0  0  0  0  0  0  0  0  0
  -12.5377   14.9628  -21.6036 H   0  0  0  0  0  0  0  0  0  0  0  0
  -14.1327   14.2448  -23.6098 H   0  0  0  0  0  0  0  0  0  0  0  0
  -11.4351   15.2791  -23.3869 H   0  0  0  0  0  0  0  0  0  0  0  0
  -11.0276   14.1417  -25.8519 H   0  0  0  0  0  0  0  0  0  0  0  0
  -13.3349   13.3253  -25.6597 H   0  0  0  0  0  0  0  0  0  0  0  0
  -13.4028   11.7512  -27.5937 H   0  0  0  0  0  0  0  0  0  0  0  0
   -9.1653    9.1724  -23.3070 H   0  0  0  0  0  0  0  0  0  0  0  0
   -9.9845    7.6596  -28.1594 H   0  0  0  0  0  0  0  0  0  0  0  0
  -11.1199    6.7325  -27.1473 H   0  0  0  0  0  0  0  0  0  0  0  0
  -10.7321   12.9975  -23.2352 H   0  0  0  0  0  0  0  0  0  0  0  0
  -13.4008   16.1871  -24.5424 H   0  0  0  0  0  0  0  0  0  0  0  0
  1  2  1  0
  2  3  1  0
  3  4  1  0
  4  5  1  0
  5  6  1  0
  5  7  1  0
  7  8  1  0
  8  9  2  0
  9 10  1  0
 10 11  2  0
 11 12  1  0
 12 13  2  0
 13 14  1  0
 14 15  2  0
 15 16  1  0
  4 17  1  0
  3 18  1  0
  6  2  1  0
 11  7  1  0
 15 10  1  0
  1 19  1  0
  1 20  1  0
  2 21  1  0
  3 22  1  0
  4 23  1  0
  5 24  1  0
  8 25  1  0
 13 26  1  0
 16 27  1  0
 16 28  1  0
 17 29  1  0
 18 30  1  0
M  RAD  1   1   2
M  END
$$$$

     RDKit          3D

 30 32  0  0  0  0  0  0  0  0999 V2000
  -13.9035   13.7358  -22.7103 C   0  0  0  0  0  3  0  0  0  0  0  0
  -12.3960   13.7987  -22.9319 C   0  0  0  0  0  0  0  0  0  0  0  0
  -12.0345   14.8300  -23.9569 C   0  0  0  0  0  0  0  0  0  0  0  0
  -11.7268   13.9685  -25.1901 C   0  0  0  0  0  0  0  0  0  0  0  0
  -12.4461   12.6967  -24.7945 C   0  0  0  0  0  0  0  0  0  0  0  0
  -12.0331   12.5489  -23.4715 O   0  0  0  0  0  0  0  0  0  0  0  0
  -12.0999   11.5774  -25.6131 N   0  0  0  0  0  0  0  0  0  0  0  0
  -12.4482   11.4050  -26.8798 C   0  0  0  0  0  0  0  0  0  0  0  0
  -11.9556   10.2362  -27.3621 N   0  0  0  0  0  0  0  0  0  0  0  0
  -11.2798    9.6612  -26.3682 C   0  0  0  0  0  0  0  0  0  0  0  0
  -11.3676   10.4979  -25.2711 C   0  0  0  0  0  0  0  0  0  0  0  0
  -10.7500   10.1077  -24.1451 N   0  0  0  0  0  0  0  0  0  0  0  0
  -10.0655    8.9479  -24.0679 C   0  0  0  0  0  0  0  0  0  0  0  0
   -9.9964    8.1523  -25.1523 N   0  0  0  0  0  0  0  0  0  0  0  0
  -10.5830    8.4575  -26.3269 C   0  0  0  0  0  0  0  0  0  0  0  0
  -10.5101    7.6244  -27.4609 N   0  0  0  0  0  0  0  0  0  0  0  0
  -10.3611   13.7627  -25.2603 O   0  0  0  0  0  0  0  0  0  0  0  0
  -13.1699   15.5993  -24.2931 O   0  0  0  0  0  0  0  0  0  0  0  0
  -14.4208   14.5776  -23.1996 H   0  0  0  0  0  0  0  0  0  0  0  0
  -14.1618   13.7021  -21.6343 H   0  0  0  0  0  0  0  0  0  0  0  0
  -11.9371   13.9761  -21.9489 H   0  0  0  0  0  0  0  0  0  0  0  0
  -11.1816   15.4569  -23.6772 H   0  0  0  0  0  0  0  0  0  0  0  0
  -12.1340   14.3955  -26.1063 H   0  0  0  0  0  0  0  0  0  0  0  0
  -13.5330   12.9350  -24.8098 H   0  0  0  0  0  0  0  0  0  0  0  0
  -13.0502   12.1041  -27.4642 H   0  0  0  0  0  0  0  0  0  0  0  0
   -9.5779    8.6777  -23.1181 H   0  0  0  0  0  0  0  0  0  0  0  0
   -9.9618    7.9165  -28.2807 H   0  0  0  0  0  0  0  0  0  0  0  0
  -11.0099    6.7252  -27.4574 H   0  0  0  0  0  0  0  0  0  0  0  0
   -9.8757   14.0099  -24.4402 H   0  0  0  0  0  0  0  0  0  0  0  0
  -13.3156   16.3031  -23.6342 H   0  0  0  0  0  0  0  0  0  0  0  0
  1  2  1  0
  2  3  1  0
  3  4  1  0
  4  5  1  0
  5  6  1  0
  5  7  1  0
  7  8  1  0
  8  9  2  0
  9 10  1  0
 10 11  2  0
 11 12  1  0
 12 13  2  0
 13 14  1  0
 14 15  2  0
 15 16  1  0
  4 17  1  0
  3 18  1  0
  6  2  1  0
 11  7  1  0
 15 10  1  0
  1 19  1  0
  1 20  1  0
  2 21  1  0
  3 22  1  0
  4 23  1  0
  5 24  1  0
  8 25  1  0
 13 26  1  0
 16 27  1  0
 16 28  1  0
 17 29  1  0
 18 30  1  0
M  RAD  1   1   2
M  END
$$$$

     RDKit          3D

 30 32  0  0  0  0  0  0  0  0999 V2000
  -14.4616   13.6209  -22.9817 C   0  0  0  0  0  3  0  0  0  0  0  0
  -13.3580   13.3375  -23.9706 C   0  0  0  0  0  0  0  0  0  0  0  0
  -12.8061   14.6059  -24.5833 C   0  0  0  0  0  0  0  0  0  0  0  0
  -11.4765   14.1012  -25.1458 C   0  0  0  0  0  0  0  0  0  0  0  0
  -11.3193   12.7854  -24.4223 C   0  0  0  0  0  0  0  0  0  0  0  0
  -12.2482   12.7569  -23.4161 O   0  0  0  0  0  0  0  0  0  0  0  0
  -11.4732   11.6551  -25.3351 N   0  0  0  0  0  0  0  0  0  0  0  0
  -12.1598   11.6375  -26.4915 C   0  0  0  0  0  0  0  0  0  0  0  0
  -12.0802   10.4135  -27.0687 N   0  0  0  0  0  0  0  0  0  0  0  0
  -11.3362    9.6279  -26.2825 C   0  0  0  0  0  0  0  0  0  0  0  0
  -10.9656   10.4129  -25.2083 C   0  0  0  0  0  0  0  0  0  0  0  0
  -10.2102    9.8590  -24.2686 N   0  0  0  0  0  0  0  0  0  0  0  0
   -9.7963    8.5797  -24.3199 C   0  0  0  0  0  0  0  0  0  0  0  0
  -10.1699    7.8350  -25.3757 N   0  0  0  0  0  0  0  0  0  0  0  0
  -10.9341    8.2995  -26.3820 C   0  0  0  0  0  0  0  0  0  0  0  0
  -11.3155    7.4980  -27.4837 N   0  0  0  0  0  0  0  0  0  0  0  0
  -10.4387   14.9858  -24.8745 O   0  0  0  0  0  0  0  0  0  0  0  0
  -12.5775   15.5962  -23.6457 O   0  0  0  0  0  0  0  0  0  0  0  0
  -14.8428   12.6360  -22.6373 H   0  0  0  0  0  0  0  0  0  0  0  0
  -14.1444   14.2904  -22.1840 H   0  0  0  0  0  0  0  0  0  0  0  0
  -13.7398   12.6958  -24.7724 H   0  0  0  0  0  0  0  0  0  0  0  0
  -13.4997   14.9195  -25.3748 H   0  0  0  0  0  0  0  0  0  0  0  0
  -11.5303   13.9843  -26.2456 H   0  0  0  0  0  0  0  0  0  0  0  0
  -10.3120   12.7946  -23.9572 H   0  0  0  0  0  0  0  0  0  0  0  0
  -12.7080   12.4644  -26.9270 H   0  0  0  0  0  0  0  0  0  0  0  0
   -9.1692    8.1493  -23.5227 H   0  0  0  0  0  0  0  0  0  0  0  0
  -12.1476    6.8899  -27.3820 H   0  0  0  0  0  0  0  0  0  0  0  0
  -10.8030    7.4917  -28.3832 H   0  0  0  0  0  0  0  0  0  0  0  0
   -9.7892   15.0192  -25.6413 H   0  0  0  0  0  0  0  0  0  0  0  0
  -11.6693   15.5418  -23.2414 H   0  0  0  0  0  0  0  0  0  0  0  0
  1  2  1  0
  2  3  1  0
  3  4  1  0
  4  5  1  0
  5  6  1  0
  5  7  1  0
  7  8  1  0
  8  9  2  0
  9 10  1  0
 10 11  2  0
 11 12  1  0
 12 13  2  0
 13 14  1  0
 14 15  2  0
 15 16  1  0
  4 17  1  0
  3 18  1  0
  6  2  1  0
 11  7  1  0
 15 10  1  0
  1 19  1  0
  1 20  1  0
  2 21  1  0
  3 22  1  0
  4 23  1  0
  5 24  1  0
  8 25  1  0
 13 26  1  0
 16 27  1  0
 16 28  1  0
 17 29  1  0
 18 30  1  0
M  RAD  1   1   2
M  END
$$$$

     RDKit          3D

 30 32  0  0  0  0  0  0  0  0999 V2000
  -14.4262   15.0255  -23.4234 C   0  0  0  0  0  3  0  0  0  0  0  0
  -13.2840   14.0676  -23.3715 C   0  0  0  0  0  0  0  0  0  0  0  0
  -12.0479   14.7476  -23.9592 C   0  0  0  0  0  0  0  0  0  0  0  0
  -11.3730   13.6182  -24.6714 C   0  0  0  0  0  0  0  0  0  0  0  0
  -12.2149   12.4149  -24.2501 C   0  0  0  0  0  0  0  0  0  0  0  0
  -13.4797   12.9518  -24.2160 O   0  0  0  0  0  0  0  0  0  0  0  0
  -12.0908   11.3323  -25.2058 N   0  0  0  0  0  0  0  0  0  0  0  0
  -12.8750   11.0436  -26.2616 C   0  0  0  0  0  0  0  0  0  0  0  0
  -12.4004    9.9421  -26.8926 N   0  0  0  0  0  0  0  0  0  0  0  0
  -11.3069    9.5083  -26.2526 C   0  0  0  0  0  0  0  0  0  0  0  0
  -11.1290   10.3916  -25.1993 C   0  0  0  0  0  0  0  0  0  0  0  0
  -10.0833   10.1882  -24.3768 N   0  0  0  0  0  0  0  0  0  0  0  0
   -9.2325    9.1624  -24.5638 C   0  0  0  0  0  0  0  0  0  0  0  0
   -9.4261    8.3216  -25.5902 N   0  0  0  0  0  0  0  0  0  0  0  0
  -10.4416    8.4435  -26.4641 C   0  0  0  0  0  0  0  0  0  0  0  0
  -10.6359    7.5445  -27.5491 N   0  0  0  0  0  0  0  0  0  0  0  0
  -11.4779   13.6978  -26.0588 O   0  0  0  0  0  0  0  0  0  0  0  0
  -11.2018   15.2065  -22.9496 O   0  0  0  0  0  0  0  0  0  0  0  0
  -14.7254   15.1236  -24.5065 H   0  0  0  0  0  0  0  0  0  0  0  0
  -14.0691   16.0063  -23.0472 H   0  0  0  0  0  0  0  0  0  0  0  0
  -13.0500   13.7182  -22.3627 H   0  0  0  0  0  0  0  0  0  0  0  0
  -12.3289   15.5358  -24.6757 H   0  0  0  0  0  0  0  0  0  0  0  0
  -10.3255   13.4563  -24.3759 H   0  0  0  0  0  0  0  0  0  0  0  0
  -11.8920   12.0223  -23.2674 H   0  0  0  0  0  0  0  0  0  0  0  0
  -13.7429   11.6181  -26.5406 H   0  0  0  0  0  0  0  0  0  0  0  0
   -8.4098    9.0637  -23.8557 H   0  0  0  0  0  0  0  0  0  0  0  0
   -9.9582    7.4655  -28.3396 H   0  0  0  0  0  0  0  0  0  0  0  0
  -11.4969    6.9402  -27.5474 H   0  0  0  0  0  0  0  0  0  0  0  0
  -12.4431   13.8198  -26.2693 H   0  0  0  0  0  0  0  0  0  0  0  0
  -11.6236   15.1427  -22.0714 H   0  0  0  0  0  0  0  0  0  0  0  0
  1  2  1  0
  2  3  1  0
  3  4  1  0
  4  5  1  0
  5  6  1  0
  5  7  1  0
  7  8  1  0
  8  9  2  0
  9 10  1  0
 10 11  2  0
 11 12  1  0
 12 13  2  0
 13 14  1  0
 14 15  2  0
 15 16  1  0
  4 17  1  0
  3 18  1  0
  6  2  1  0
 11  7  1  0
 15 10  1  0
  1 19  1  0
  1 20  1  0
  2 21  1  0
  3 22  1  0
  4 23  1  0
  5 24  1  0
  8 25  1  0
 13 26  1  0
 16 27  1  0
 16 28  1  0
 17 29  1  0
 18 30  1  0
M  RAD  1   1   2
M  END
$$$$

     RDKit          3D

 30 32  0  0  0  0  0  0  0  0999 V2000
  -14.2059   13.3136  -22.9538 C   0  0  0  0  0  3  0  0  0  0  0  0
  -13.2017   13.1035  -24.0439 C   0  0  0  0  0  0  0  0  0  0  0  0
  -12.8378   14.3475  -24.7896 C   0  0  0  0  0  0  0  0  0  0  0  0
  -11.3686   14.1158  -25.1017 C   0  0  0  0  0  0  0  0  0  0  0  0
  -11.0907   12.8044  -24.4498 C   0  0  0  0  0  0  0  0  0  0  0  0
  -11.9968   12.7116  -23.4206 O   0  0  0  0  0  0  0  0  0  0  0  0
  -11.3576   11.7296  -25.3836 N   0  0  0  0  0  0  0  0  0  0  0  0
  -12.0287   11.7752  -26.5488 C   0  0  0  0  0  0  0  0  0  0  0  0
  -12.0474   10.5541  -27.1074 N   0  0  0  0  0  0  0  0  0  0  0  0
  -11.3735    9.7447  -26.2660 C   0  0  0  0  0  0  0  0  0  0  0  0
  -10.9294   10.4600  -25.1741 C   0  0  0  0  0  0  0  0  0  0  0  0
  -10.2183    9.8784  -24.1690 N   0  0  0  0  0  0  0  0  0  0  0  0
   -9.9467    8.5599  -24.2568 C   0  0  0  0  0  0  0  0  0  0  0  0
  -10.3663    7.8376  -25.3084 N   0  0  0  0  0  0  0  0  0  0  0  0
  -11.0695    8.3882  -26.3131 C   0  0  0  0  0  0  0  0  0  0  0  0
  -11.5273    7.6630  -27.4335 N   0  0  0  0  0  0  0  0  0  0  0  0
  -10.5894   15.1513  -24.5912 O   0  0  0  0  0  0  0  0  0  0  0  0
  -12.9712   15.4695  -23.9446 O   0  0  0  0  0  0  0  0  0  0  0  0
  -15.2349   13.0976  -23.2221 H   0  0  0  0  0  0  0  0  0  0  0  0
  -14.0284   14.1675  -22.3122 H   0  0  0  0  0  0  0  0  0  0  0  0
  -13.5510   12.2746  -24.6756 H   0  0  0  0  0  0  0  0  0  0  0  0
  -13.4031   14.5286  -25.7014 H   0  0  0  0  0  0  0  0  0  0  0  0
  -11.1939   14.0851  -26.1853 H   0  0  0  0  0  0  0  0  0  0  0  0
  -10.0627   12.7214  -24.0443 H   0  0  0  0  0  0  0  0  0  0  0  0
  -12.4799   12.6977  -26.9483 H   0  0  0  0  0  0  0  0  0  0  0  0
   -9.3742    8.0564  -23.4627 H   0  0  0  0  0  0  0  0  0  0  0  0
  -11.0841    7.8329  -28.3681 H   0  0  0  0  0  0  0  0  0  0  0  0
  -12.3080    6.9611  -27.3154 H   0  0  0  0  0  0  0  0  0  0  0  0
  -10.7566   15.9438  -25.1887 H   0  0  0  0  0  0  0  0  0  0  0  0
  -12.3752   15.3607  -23.1644 H   0  0  0  0  0  0  0  0  0  0  0  0
  1  2  1  0
  2  3  1  0
  3  4  1  0
  4  5  1  0
  5  6  1  0
  5  7  1  0
  7  8  1  0
  8  9  2  0
  9 10  1  0
 10 11  2  0
 11 12  1  0
 12 13  2  0
 13 14  1  0
 14 15  2  0
 15 16  1  0
  4 17  1  0
  3 18  1  0
  6  2  1  0
 11  7  1  0
 15 10  1  0
  1 19  1  0
  1 20  1  0
  2 21  1  0
  3 22  1  0
  4 23  1  0
  5 24  1  0
  8 25  1  0
 13 26  1  0
 16 27  1  0
 16 28  1  0
 17 29  1  0
 18 30  1  0
M  RAD  1   1   2
M  END
$$$$

     RDKit          3D

 30 32  0  0  0  0  0  0  0  0999 V2000
  -13.8864   13.6382  -22.4707 C   0  0  0  0  0  3  0  0  0  0  0  0
  -13.2209   13.0645  -23.7277 C   0  0  0  0  0  0  0  0  0  0  0  0
  -12.9329   14.1841  -24.6932 C   0  0  0  0  0  0  0  0  0  0  0  0
  -11.4072   14.1917  -24.7023 C   0  0  0  0  0  0  0  0  0  0  0  0
  -11.0749   12.8075  -24.3052 C   0  0  0  0  0  0  0  0  0  0  0  0
  -12.0295   12.5131  -23.3374 O   0  0  0  0  0  0  0  0  0  0  0  0
  -11.2063   11.8345  -25.3550 N   0  0  0  0  0  0  0  0  0  0  0  0
  -11.5372   11.9395  -26.6376 C   0  0  0  0  0  0  0  0  0  0  0  0
  -11.5271   10.7414  -27.2341 N   0  0  0  0  0  0  0  0  0  0  0  0
  -11.1770    9.8375  -26.2987 C   0  0  0  0  0  0  0  0  0  0  0  0
  -10.9742   10.5112  -25.1198 C   0  0  0  0  0  0  0  0  0  0  0  0
  -10.6124    9.8059  -24.0314 N   0  0  0  0  0  0  0  0  0  0  0  0
  -10.4451    8.4709  -24.0650 C   0  0  0  0  0  0  0  0  0  0  0  0
  -10.6480    7.8282  -25.2278 N   0  0  0  0  0  0  0  0  0  0  0  0
  -11.0121    8.4628  -26.3634 C   0  0  0  0  0  0  0  0  0  0  0  0
  -11.2145    7.7375  -27.5680 N   0  0  0  0  0  0  0  0  0  0  0  0
  -10.8790   14.6228  -25.8881 O   0  0  0  0  0  0  0  0  0  0  0  0
  -13.3424   15.4166  -24.2306 O   0  0  0  0  0  0  0  0  0  0  0  0
  -13.2172   14.4776  -22.1537 H   0  0  0  0  0  0  0  0  0  0  0  0
  -13.8606   12.8270  -21.7170 H   0  0  0  0  0  0  0  0  0  0  0  0
  -13.9035   12.3084  -24.1702 H   0  0  0  0  0  0  0  0  0  0  0  0
  -13.3575   13.9384  -25.6780 H   0  0  0  0  0  0  0  0  0  0  0  0
  -11.0674   14.8769  -23.8821 H   0  0  0  0  0  0  0  0  0  0  0  0
  -10.0645   12.6979  -23.8358 H   0  0  0  0  0  0  0  0  0  0  0  0
  -11.7795   12.8593  -27.1283 H   0  0  0  0  0  0  0  0  0  0  0  0
  -10.1554    7.8889  -23.2027 H   0  0  0  0  0  0  0  0  0  0  0  0
  -11.9022    6.9445  -27.5845 H   0  0  0  0  0  0  0  0  0  0  0  0
  -10.7148    7.9456  -28.4544 H   0  0  0  0  0  0  0  0  0  0  0  0
  -10.2767   15.4056  -25.7533 H   0  0  0  0  0  0  0  0  0  0  0  0
  -14.3225   15.4932  -24.1301 H   0  0  0  0  0  0  0  0  0  0  0  0
  1  2  1  0
  2  3  1  0
  3  4  1  0
  4  5  1  0
  5  6  1  0
  5  7  1  0
  7  8  1  0
  8  9  2  0
  9 10  1  0
 10 11  2  0
 11 12  1  0
 12 13  2  0
 13 14  1  0
 14 15  2  0
 15 16  1  0
  4 17  1  0
  3 18  1  0
  6  2  1  0
 11  7  1  0
 15 10  1  0
  1 19  1  0
  1 20  1  0
  2 21  1  0
  3 22  1  0
  4 23  1  0
  5 24  1  0
  8 25  1  0
 13 26  1  0
 16 27  1  0
 16 28  1  0
 17 29  1  0
 18 30  1  0
M  RAD  1   1   2
M  END
$$$$

     RDKit          3D

 30 32  0  0  0  0  0  0  0  0999 V2000
  -14.0793   14.1784  -22.7652 C   0  0  0  0  0  3  0  0  0  0  0  0
  -12.6255   13.7716  -23.0029 C   0  0  0  0  0  0  0  0  0  0  0  0
  -11.9185   14.7203  -23.9235 C   0  0  0  0  0  0  0  0  0  0  0  0
  -11.3770   13.7587  -24.9913 C   0  0  0  0  0  0  0  0  0  0  0  0
  -12.4794   12.7114  -24.9302 C   0  0  0  0  0  0  0  0  0  0  0  0
  -12.5512   12.5072  -23.5442 O   0  0  0  0  0  0  0  0  0  0  0  0
  -12.1802   11.5322  -25.6645 N   0  0  0  0  0  0  0  0  0  0  0  0
  -12.7784   11.2189  -26.8512 C   0  0  0  0  0  0  0  0  0  0  0  0
  -12.2722   10.0600  -27.2626 N   0  0  0  0  0  0  0  0  0  0  0  0
  -11.3768    9.6452  -26.3647 C   0  0  0  0  0  0  0  0  0  0  0  0
  -11.3155   10.5715  -25.3543 C   0  0  0  0  0  0  0  0  0  0  0  0
  -10.4683   10.3770  -24.3080 N   0  0  0  0  0  0  0  0  0  0  0  0
   -9.6847    9.2932  -24.2387 C   0  0  0  0  0  0  0  0  0  0  0  0
   -9.7565    8.3968  -25.2347 N   0  0  0  0  0  0  0  0  0  0  0  0
  -10.5828    8.5455  -26.2960 C   0  0  0  0  0  0  0  0  0  0  0  0
  -10.6502    7.5853  -27.3491 N   0  0  0  0  0  0  0  0  0  0  0  0
  -10.1459   13.2368  -24.5927 O   0  0  0  0  0  0  0  0  0  0  0  0
  -12.8845   15.4981  -24.5821 O   0  0  0  0  0  0  0  0  0  0  0  0
  -14.1986   14.6321  -21.7602 H   0  0  0  0  0  0  0  0  0  0  0  0
  -14.4598   14.8236  -23.5746 H   0  0  0  0  0  0  0  0  0  0  0  0
  -12.0831   13.7421  -22.0149 H   0  0  0  0  0  0  0  0  0  0  0  0
  -11.1346   15.3154  -23.4634 H   0  0  0  0  0  0  0  0  0  0  0  0
  -11.3408   14.2893  -25.9461 H   0  0  0  0  0  0  0  0  0  0  0  0
  -13.4010   13.2212  -25.2879 H   0  0  0  0  0  0  0  0  0  0  0  0
  -13.5292   11.7943  -27.3779 H   0  0  0  0  0  0  0  0  0  0  0  0
   -8.9958    9.1214  -23.4014 H   0  0  0  0  0  0  0  0  0  0  0  0
  -10.3666    7.8706  -28.3123 H   0  0  0  0  0  0  0  0  0  0  0  0
  -10.9804    6.6145  -27.1454 H   0  0  0  0  0  0  0  0  0  0  0  0
   -9.6752   13.8933  -24.0162 H   0  0  0  0  0  0  0  0  0  0  0  0
  -12.7985   15.4514  -25.5651 H   0  0  0  0  0  0  0  0  0  0  0  0
  1  2  1  0
  2  3  1  0
  3  4  1  0
  4  5  1  0
  5  6  1  0
  5  7  1  0
  7  8  1  0
  8  9  2  0
  9 10  1  0
 10 11  2  0
 11 12  1  0
 12 13  2  0
 13 14  1  0
 14 15  2  0
 15 16  1  0
  4 17  1  0
  3 18  1  0
  6  2  1  0
 11  7  1  0
 15 10  1  0
  1 19  1  0
  1 20  1  0
  2 21  1  0
  3 22  1  0
  4 23  1  0
  5 24  1  0
  8 25  1  0
 13 26  1  0
 16 27  1  0
 16 28  1  0
 17 29  1  0
 18 30  1  0
M  RAD  1   1   2
M  END
$$$$

     RDKit          3D

 30 32  0  0  0  0  0  0  0  0999 V2000
  -14.6892   13.9335  -23.6884 C   0  0  0  0  0  3  0  0  0  0  0  0
  -13.2366   13.8726  -23.2118 C   0  0  0  0  0  0  0  0  0  0  0  0
  -12.4594   14.8630  -24.0138 C   0  0  0  0  0  0  0  0  0  0  0  0
  -11.9681   13.9895  -25.1769 C   0  0  0  0  0  0  0  0  0  0  0  0
  -11.8097   12.6665  -24.4426 C   0  0  0  0  0  0  0  0  0  0  0  0
  -12.7708   12.6158  -23.4707 O   0  0  0  0  0  0  0  0  0  0  0  0
  -11.7966   11.5502  -25.3383 N   0  0  0  0  0  0  0  0  0  0  0  0
  -12.5206   11.4228  -26.4576 C   0  0  0  0  0  0  0  0  0  0  0  0
  -12.2265   10.2254  -27.0257 N   0  0  0  0  0  0  0  0  0  0  0  0
  -11.3089    9.5827  -26.2656 C   0  0  0  0  0  0  0  0  0  0  0  0
  -11.0514   10.4332  -25.2083 C   0  0  0  0  0  0  0  0  0  0  0  0
  -10.1662   10.0364  -24.2921 N   0  0  0  0  0  0  0  0  0  0  0  0
   -9.5550    8.8458  -24.4101 C   0  0  0  0  0  0  0  0  0  0  0  0
   -9.8035    8.0129  -25.4404 N   0  0  0  0  0  0  0  0  0  0  0  0
  -10.6836    8.3627  -26.3878 C   0  0  0  0  0  0  0  0  0  0  0  0
  -10.9292    7.4762  -27.4581 N   0  0  0  0  0  0  0  0  0  0  0  0
  -10.7881   14.4500  -25.7059 O   0  0  0  0  0  0  0  0  0  0  0  0
  -11.3635   15.2689  -23.2618 O   0  0  0  0  0  0  0  0  0  0  0  0
  -14.9772   13.0078  -24.2320 H   0  0  0  0  0  0  0  0  0  0  0  0
  -14.8477   14.7708  -24.4006 H   0  0  0  0  0  0  0  0  0  0  0  0
  -13.1762   14.1322  -22.1245 H   0  0  0  0  0  0  0  0  0  0  0  0
  -13.0631   15.7099  -24.3890 H   0  0  0  0  0  0  0  0  0  0  0  0
  -12.7192   13.9536  -25.9687 H   0  0  0  0  0  0  0  0  0  0  0  0
  -10.7983   12.7053  -23.9464 H   0  0  0  0  0  0  0  0  0  0  0  0
  -13.2159   12.1654  -26.8244 H   0  0  0  0  0  0  0  0  0  0  0  0
   -8.8369    8.5615  -23.6362 H   0  0  0  0  0  0  0  0  0  0  0  0
  -11.8998    7.1674  -27.6597 H   0  0  0  0  0  0  0  0  0  0  0  0
  -10.1720    7.1095  -28.0667 H   0  0  0  0  0  0  0  0  0  0  0  0
  -10.0299   14.4765  -25.0845 H   0  0  0  0  0  0  0  0  0  0  0  0
  -10.8279   15.9679  -23.6875 H   0  0  0  0  0  0  0  0  0  0  0  0
  1  2  1  0
  2  3  1  0
  3  4  1  0
  4  5  1  0
  5  6  1  0
  5  7  1  0
  7  8  1  0
  8  9  2  0
  9 10  1  0
 10 11  2  0
 11 12  1  0
 12 13  2  0
 13 14  1  0
 14 15  2  0
 15 16  1  0
  4 17  1  0
  3 18  1  0
  6  2  1  0
 11  7  1  0
 15 10  1  0
  1 19  1  0
  1 20  1  0
  2 21  1  0
  3 22  1  0
  4 23  1  0
  5 24  1  0
  8 25  1  0
 13 26  1  0
 16 27  1  0
 16 28  1  0
 17 29  1  0
 18 30  1  0
M  RAD  1   1   2
M  END
$$$$

     RDKit          3D

 30 32  0  0  0  0  0  0  0  0999 V2000
  -13.9780   14.4578  -22.8730 C   0  0  0  0  0  3  0  0  0  0  0  0
  -13.4830   14.4326  -24.3106 C   0  0  0  0  0  0  0  0  0  0  0  0
  -12.0322   14.8114  -24.4191 C   0  0  0  0  0  0  0  0  0  0  0  0
  -11.3232   13.5162  -24.8259 C   0  0  0  0  0  0  0  0  0  0  0  0
  -12.3841   12.4930  -24.4913 C   0  0  0  0  0  0  0  0  0  0  0  0
  -13.6107   13.1277  -24.7577 O   0  0  0  0  0  0  0  0  0  0  0  0
  -12.2948   11.3024  -25.2765 N   0  0  0  0  0  0  0  0  0  0  0  0
  -13.2001   10.7453  -26.1026 C   0  0  0  0  0  0  0  0  0  0  0  0
  -12.6963    9.6189  -26.6424 N   0  0  0  0  0  0  0  0  0  0  0  0
  -11.4562    9.4460  -26.1621 C   0  0  0  0  0  0  0  0  0  0  0  0
  -11.1929   10.5042  -25.2982 C   0  0  0  0  0  0  0  0  0  0  0  0
   -9.9984   10.5517  -24.6866 N   0  0  0  0  0  0  0  0  0  0  0  0
   -9.0542    9.6077  -24.8862 C   0  0  0  0  0  0  0  0  0  0  0  0
   -9.3424    8.5945  -25.7308 N   0  0  0  0  0  0  0  0  0  0  0  0
  -10.5005    8.4716  -26.3771 C   0  0  0  0  0  0  0  0  0  0  0  0
  -10.7688    7.3895  -27.2601 N   0  0  0  0  0  0  0  0  0  0  0  0
  -10.1955   13.3401  -24.0298 O   0  0  0  0  0  0  0  0  0  0  0  0
  -11.6154   15.1974  -23.1260 O   0  0  0  0  0  0  0  0  0  0  0  0
  -13.2337   14.0726  -22.1599 H   0  0  0  0  0  0  0  0  0  0  0  0
  -14.8611   13.7589  -22.7896 H   0  0  0  0  0  0  0  0  0  0  0  0
  -14.1127   15.1247  -24.8824 H   0  0  0  0  0  0  0  0  0  0  0  0
  -11.8331   15.6005  -25.1606 H   0  0  0  0  0  0  0  0  0  0  0  0
  -11.0693   13.5335  -25.8952 H   0  0  0  0  0  0  0  0  0  0  0  0
  -12.3070   12.3086  -23.3949 H   0  0  0  0  0  0  0  0  0  0  0  0
  -14.1781   11.1826  -26.2720 H   0  0  0  0  0  0  0  0  0  0  0  0
   -8.0847    9.6558  -24.3831 H   0  0  0  0  0  0  0  0  0  0  0  0
  -11.4384    7.4433  -28.0504 H   0  0  0  0  0  0  0  0  0  0  0  0
  -10.2742    6.4782  -27.1235 H   0  0  0  0  0  0  0  0  0  0  0  0
  -10.4292   12.9584  -23.1543 H   0  0  0  0  0  0  0  0  0  0  0  0
  -12.3060   15.7934  -22.7539 H   0  0  0  0  0  0  0  0  0  0  0  0
  1  2  1  0
  2  3  1  0
  3  4  1  0
  4  5  1  0
  5  6  1  0
  5  7  1  0
  7  8  1  0
  8  9  2  0
  9 10  1  0
 10 11  2  0
 11 12  1  0
 12 13  2  0
 13 14  1  0
 14 15  2  0
 15 16  1  0
  4 17  1  0
  3 18  1  0
  6  2  1  0
 11  7  1  0
 15 10  1  0
  1 19  1  0
  1 20  1  0
  2 21  1  0
  3 22  1  0
  4 23  1  0
  5 24  1  0
  8 25  1  0
 13 26  1  0
 16 27  1  0
 16 28  1  0
 17 29  1  0
 18 30  1  0
M  RAD  1   1   2
M  END
$$$$

     RDKit          3D

 30 32  0  0  0  0  0  0  0  0999 V2000
  -14.0191   13.6380  -22.5945 C   0  0  0  0  0  3  0  0  0  0  0  0
  -13.3973   14.3003  -23.8069 C   0  0  0  0  0  0  0  0  0  0  0  0
  -11.9186   14.5907  -23.5890 C   0  0  0  0  0  0  0  0  0  0  0  0
  -11.2421   13.3493  -24.1854 C   0  0  0  0  0  0  0  0  0  0  0  0
  -12.4504   12.4387  -24.3451 C   0  0  0  0  0  0  0  0  0  0  0  0
  -13.3978   13.3584  -24.8382 O   0  0  0  0  0  0  0  0  0  0  0  0
  -12.2180   11.3630  -25.2574 N   0  0  0  0  0  0  0  0  0  0  0  0
  -12.9683   11.1220  -26.3469 C   0  0  0  0  0  0  0  0  0  0  0  0
  -12.4254   10.0371  -26.9267 N   0  0  0  0  0  0  0  0  0  0  0  0
  -11.3628    9.5978  -26.2318 C   0  0  0  0  0  0  0  0  0  0  0  0
  -11.2499   10.4652  -25.1650 C   0  0  0  0  0  0  0  0  0  0  0  0
  -10.2244   10.2164  -24.3041 N   0  0  0  0  0  0  0  0  0  0  0  0
   -9.3768    9.1874  -24.4871 C   0  0  0  0  0  0  0  0  0  0  0  0
   -9.4929    8.3360  -25.5401 N   0  0  0  0  0  0  0  0  0  0  0  0
  -10.4906    8.5450  -26.4135 C   0  0  0  0  0  0  0  0  0  0  0  0
  -10.6289    7.6676  -27.5191 N   0  0  0  0  0  0  0  0  0  0  0  0
  -10.6827   13.6582  -25.4317 O   0  0  0  0  0  0  0  0  0  0  0  0
  -11.5808   15.7368  -24.2735 O   0  0  0  0  0  0  0  0  0  0  0  0
  -14.7077   14.3308  -22.0559 H   0  0  0  0  0  0  0  0  0  0  0  0
  -14.6716   12.7801  -22.9264 H   0  0  0  0  0  0  0  0  0  0  0  0
  -13.9532   15.2076  -24.1178 H   0  0  0  0  0  0  0  0  0  0  0  0
  -11.6679   14.6477  -22.5101 H   0  0  0  0  0  0  0  0  0  0  0  0
  -10.4751   12.9381  -23.5282 H   0  0  0  0  0  0  0  0  0  0  0  0
  -12.7483   12.1294  -23.3345 H   0  0  0  0  0  0  0  0  0  0  0  0
  -13.8445   11.6860  -26.7006 H   0  0  0  0  0  0  0  0  0  0  0  0
   -8.5558    8.9766  -23.8105 H   0  0  0  0  0  0  0  0  0  0  0  0
  -10.2697    7.9817  -28.4407 H   0  0  0  0  0  0  0  0  0  0  0  0
  -11.0683    6.7316  -27.4564 H   0  0  0  0  0  0  0  0  0  0  0  0
  -11.3966   14.0585  -26.0185 H   0  0  0  0  0  0  0  0  0  0  0  0
  -10.6547   15.7675  -24.5811 H   0  0  0  0  0  0  0  0  0  0  0  0
  1  2  1  0
  2  3  1  0
  3  4  1  0
  4  5  1  0
  5  6  1  0
  5  7  1  0
  7  8  1  0
  8  9  2  0
  9 10  1  0
 10 11  2  0
 11 12  1  0
 12 13  2  0
 13 14  1  0
 14 15  2  0
 15 16  1  0
  4 17  1  0
  3 18  1  0
  6  2  1  0
 11  7  1  0
 15 10  1  0
  1 19  1  0
  1 20  1  0
  2 21  1  0
  3 22  1  0
  4 23  1  0
  5 24  1  0
  8 25  1  0
 13 26  1  0
 16 27  1  0
 16 28  1  0
 17 29  1  0
 18 30  1  0
M  RAD  1   1   2
M  END
$$$$

     RDKit          3D

 30 32  0  0  0  0  0  0  0  0999 V2000
  -14.7017   14.1134  -24.6404 C   0  0  0  0  0  3  0  0  0  0  0  0
  -13.4539   14.0199  -23.7692 C   0  0  0  0  0  0  0  0  0  0  0  0
  -12.3147   14.8259  -24.3164 C   0  0  0  0  0  0  0  0  0  0  0  0
  -11.3809   13.7641  -24.8377 C   0  0  0  0  0  0  0  0  0  0  0  0
  -11.8452   12.5198  -24.1819 C   0  0  0  0  0  0  0  0  0  0  0  0
  -13.0369   12.7452  -23.5492 O   0  0  0  0  0  0  0  0  0  0  0  0
  -11.9652   11.3853  -25.0688 N   0  0  0  0  0  0  0  0  0  0  0  0
  -12.9999   11.0852  -25.8927 C   0  0  0  0  0  0  0  0  0  0  0  0
  -12.7109    9.9361  -26.5498 N   0  0  0  0  0  0  0  0  0  0  0  0
  -11.5061    9.4946  -26.1596 C   0  0  0  0  0  0  0  0  0  0  0  0
  -11.0365   10.4011  -25.2314 C   0  0  0  0  0  0  0  0  0  0  0  0
   -9.8325   10.2419  -24.6384 N   0  0  0  0  0  0  0  0  0  0  0  0
   -9.0743    9.1797  -24.9573 C   0  0  0  0  0  0  0  0  0  0  0  0
   -9.5348    8.2979  -25.8624 N   0  0  0  0  0  0  0  0  0  0  0  0
  -10.7092    8.4039  -26.4762 C   0  0  0  0  0  0  0  0  0  0  0  0
  -11.2061    7.4931  -27.4235 N   0  0  0  0  0  0  0  0  0  0  0  0
  -10.0822   14.1281  -24.4122 O   0  0  0  0  0  0  0  0  0  0  0  0
  -11.7359   15.5728  -23.2888 O   0  0  0  0  0  0  0  0  0  0  0  0
  -14.3441   14.1951  -25.6843 H   0  0  0  0  0  0  0  0  0  0  0  0
  -15.2455   15.0427  -24.3686 H   0  0  0  0  0  0  0  0  0  0  0  0
  -13.7584   14.4598  -22.7747 H   0  0  0  0  0  0  0  0  0  0  0  0
  -12.6471   15.4697  -25.1616 H   0  0  0  0  0  0  0  0  0  0  0  0
  -11.3386   13.7177  -25.9401 H   0  0  0  0  0  0  0  0  0  0  0  0
  -11.0939   12.2554  -23.3815 H   0  0  0  0  0  0  0  0  0  0  0  0
  -13.9021   11.6732  -25.9997 H   0  0  0  0  0  0  0  0  0  0  0  0
   -8.0872    9.0101  -24.4993 H   0  0  0  0  0  0  0  0  0  0  0  0
  -11.2860    7.7869  -28.4215 H   0  0  0  0  0  0  0  0  0  0  0  0
  -11.5041    6.5262  -27.1845 H   0  0  0  0  0  0  0  0  0  0  0  0
   -9.7885   14.9514  -24.8307 H   0  0  0  0  0  0  0  0  0  0  0  0
  -12.1324   16.4913  -23.3335 H   0  0  0  0  0  0  0  0  0  0  0  0
  1  2  1  0
  2  3  1  0
  3  4  1  0
  4  5  1  0
  5  6  1  0
  5  7  1  0
  7  8  1  0
  8  9  2  0
  9 10  1  0
 10 11  2  0
 11 12  1  0
 12 13  2  0
 13 14  1  0
 14 15  2  0
 15 16  1  0
  4 17  1  0
  3 18  1  0
  6  2  1  0
 11  7  1  0
 15 10  1  0
  1 19  1  0
  1 20  1  0
  2 21  1  0
  3 22  1  0
  4 23  1  0
  5 24  1  0
  8 25  1  0
 13 26  1  0
 16 27  1  0
 16 28  1  0
 17 29  1  0
 18 30  1  0
M  RAD  1   1   2
M  END
$$$$

     RDKit          3D

 30 32  0  0  0  0  0  0  0  0999 V2000
  -13.2129   15.7443  -25.3978 C   0  0  0  0  0  3  0  0  0  0  0  0
  -12.0904   14.8592  -24.8792 C   0  0  0  0  0  0  0  0  0  0  0  0
  -12.2765   14.5408  -23.4168 C   0  0  0  0  0  0  0  0  0  0  0  0
  -12.6013   13.0450  -23.4856 C   0  0  0  0  0  0  0  0  0  0  0  0
  -11.6779   12.6775  -24.6546 C   0  0  0  0  0  0  0  0  0  0  0  0
  -11.9922   13.6770  -25.5650 O   0  0  0  0  0  0  0  0  0  0  0  0
  -11.9126   11.3642  -25.1388 N   0  0  0  0  0  0  0  0  0  0  0  0
  -13.0632   10.7094  -25.3330 C   0  0  0  0  0  0  0  0  0  0  0  0
  -12.8291    9.4732  -25.8095 N   0  0  0  0  0  0  0  0  0  0  0  0
  -11.4997    9.3086  -25.9323 C   0  0  0  0  0  0  0  0  0  0  0  0
  -10.9422   10.4985  -25.5094 C   0  0  0  0  0  0  0  0  0  0  0  0
   -9.5977   10.6154  -25.5267 N   0  0  0  0  0  0  0  0  0  0  0  0
   -8.8063    9.6125  -25.9408 C   0  0  0  0  0  0  0  0  0  0  0  0
   -9.3401    8.4662  -26.3484 N   0  0  0  0  0  0  0  0  0  0  0  0
  -10.6657    8.3018  -26.3498 C   0  0  0  0  0  0  0  0  0  0  0  0
  -11.2134    7.0785  -26.7858 N   0  0  0  0  0  0  0  0  0  0  0  0
  -12.1325   12.3747  -22.3623 O   0  0  0  0  0  0  0  0  0  0  0  0
  -13.2733   15.2613  -22.8200 O   0  0  0  0  0  0  0  0  0  0  0  0
  -13.8989   15.1601  -26.0493 H   0  0  0  0  0  0  0  0  0  0  0  0
  -12.8483   16.6620  -25.8764 H   0  0  0  0  0  0  0  0  0  0  0  0
  -11.1548   15.4532  -25.0017 H   0  0  0  0  0  0  0  0  0  0  0  0
  -11.2970   14.6077  -22.9041 H   0  0  0  0  0  0  0  0  0  0  0  0
  -13.6516   12.8564  -23.7102 H   0  0  0  0  0  0  0  0  0  0  0  0
  -10.6553   12.8287  -24.2966 H   0  0  0  0  0  0  0  0  0  0  0  0
  -14.0341   11.0988  -25.1418 H   0  0  0  0  0  0  0  0  0  0  0  0
   -7.7317    9.8014  -25.9188 H   0  0  0  0  0  0  0  0  0  0  0  0
  -11.8117    7.0230  -27.6273 H   0  0  0  0  0  0  0  0  0  0  0  0
  -11.0146    6.2134  -26.2541 H   0  0  0  0  0  0  0  0  0  0  0  0
  -12.8655   11.7826  -22.0559 H   0  0  0  0  0  0  0  0  0  0  0  0
  -12.8426   16.0221  -22.3241 H   0  0  0  0  0  0  0  0  0  0  0  0
  1  2  1  0
  2  3  1  0
  3  4  1  0
  4  5  1  0
  5  6  1  0
  5  7  1  0
  7  8  1  0
  8  9  2  0
  9 10  1  0
 10 11  2  0
 11 12  1  0
 12 13  2  0
 13 14  1  0
 14 15  2  0
 15 16  1  0
  4 17  1  0
  3 18  1  0
  6  2  1  0
 11  7  1  0
 15 10  1  0
  1 19  1  0
  1 20  1  0
  2 21  1  0
  3 22  1  0
  4 23  1  0
  5 24  1  0
  8 25  1  0
 13 26  1  0
 16 27  1  0
 16 28  1  0
 17 29  1  0
 18 30  1  0
M  RAD  1   1   2
M  END
$$$$

     RDKit          3D

 30 32  0  0  0  0  0  0  0  0999 V2000
  -14.0003   14.2411  -22.2776 C   0  0  0  0  0  3  0  0  0  0  0  0
  -12.7919   13.8274  -23.0520 C   0  0  0  0  0  0  0  0  0  0  0  0
  -12.3523   14.8508  -24.0704 C   0  0  0  0  0  0  0  0  0  0  0  0
  -11.5770   13.9954  -25.0537 C   0  0  0  0  0  0  0  0  0  0  0  0
  -11.7458   12.6146  -24.4586 C   0  0  0  0  0  0  0  0  0  0  0  0
  -13.0079   12.7120  -23.8622 O   0  0  0  0  0  0  0  0  0  0  0  0
  -11.6652   11.5678  -25.4198 N   0  0  0  0  0  0  0  0  0  0  0  0
  -12.1215   11.5492  -26.6685 C   0  0  0  0  0  0  0  0  0  0  0  0
  -11.8466   10.3644  -27.2623 N   0  0  0  0  0  0  0  0  0  0  0  0
  -11.1978    9.6020  -26.3743 C   0  0  0  0  0  0  0  0  0  0  0  0
  -11.0897   10.3669  -25.2227 C   0  0  0  0  0  0  0  0  0  0  0  0
  -10.4599    9.8226  -24.1404 N   0  0  0  0  0  0  0  0  0  0  0  0
   -9.9660    8.5730  -24.2179 C   0  0  0  0  0  0  0  0  0  0  0  0
  -10.0739    7.8353  -25.3383 N   0  0  0  0  0  0  0  0  0  0  0  0
  -10.6825    8.3143  -26.4370 C   0  0  0  0  0  0  0  0  0  0  0  0
  -10.8263    7.5869  -27.6424 N   0  0  0  0  0  0  0  0  0  0  0  0
  -10.2456   14.3926  -25.0985 O   0  0  0  0  0  0  0  0  0  0  0  0
  -13.4767   15.3917  -24.6594 O   0  0  0  0  0  0  0  0  0  0  0  0
  -13.8660   15.3296  -22.0074 H   0  0  0  0  0  0  0  0  0  0  0  0
  -14.9516   14.0924  -22.8237 H   0  0  0  0  0  0  0  0  0  0  0  0
  -11.9539   13.5975  -22.3904 H   0  0  0  0  0  0  0  0  0  0  0  0
  -11.7015   15.6037  -23.5832 H   0  0  0  0  0  0  0  0  0  0  0  0
  -12.0147   14.0186  -26.0637 H   0  0  0  0  0  0  0  0  0  0  0  0
  -11.0165   12.5290  -23.6364 H   0  0  0  0  0  0  0  0  0  0  0  0
  -12.6430   12.3774  -27.1399 H   0  0  0  0  0  0  0  0  0  0  0  0
   -9.4557    8.1107  -23.3650 H   0  0  0  0  0  0  0  0  0  0  0  0
  -10.6096    7.9452  -28.5880 H   0  0  0  0  0  0  0  0  0  0  0  0
  -11.1885    6.5932  -27.5390 H   0  0  0  0  0  0  0  0  0  0  0  0
   -9.7995   13.9804  -25.8748 H   0  0  0  0  0  0  0  0  0  0  0  0
  -13.2659   15.7174  -25.5687 H   0  0  0  0  0  0  0  0  0  0  0  0
  1  2  1  0
  2  3  1  0
  3  4  1  0
  4  5  1  0
  5  6  1  0
  5  7  1  0
  7  8  1  0
  8  9  2  0
  9 10  1  0
 10 11  2  0
 11 12  1  0
 12 13  2  0
 13 14  1  0
 14 15  2  0
 15 16  1  0
  4 17  1  0
  3 18  1  0
  6  2  1  0
 11  7  1  0
 15 10  1  0
  1 19  1  0
  1 20  1  0
  2 21  1  0
  3 22  1  0
  4 23  1  0
  5 24  1  0
  8 25  1  0
 13 26  1  0
 16 27  1  0
 16 28  1  0
 17 29  1  0
 18 30  1  0
M  RAD  1   1   2
M  END
$$$$

     RDKit          3D

 30 32  0  0  0  0  0  0  0  0999 V2000
  -12.9058   13.9157  -21.8017 C   0  0  0  0  0  3  0  0  0  0  0  0
  -12.1115   13.9196  -23.0684 C   0  0  0  0  0  0  0  0  0  0  0  0
  -12.8764   14.6712  -24.1224 C   0  0  0  0  0  0  0  0  0  0  0  0
  -12.7055   13.7603  -25.3421 C   0  0  0  0  0  0  0  0  0  0  0  0
  -11.4984   12.9314  -24.8828 C   0  0  0  0  0  0  0  0  0  0  0  0
  -11.9077   12.6204  -23.5771 O   0  0  0  0  0  0  0  0  0  0  0  0
  -11.3370   11.7792  -25.7090 N   0  0  0  0  0  0  0  0  0  0  0  0
  -11.4680   11.7704  -27.0486 C   0  0  0  0  0  0  0  0  0  0  0  0
  -11.2457   10.5070  -27.4986 N   0  0  0  0  0  0  0  0  0  0  0  0
  -10.9787    9.7462  -26.4277 C   0  0  0  0  0  0  0  0  0  0  0  0
  -11.0305   10.5277  -25.2853 C   0  0  0  0  0  0  0  0  0  0  0  0
  -10.8074   10.0451  -24.0633 N   0  0  0  0  0  0  0  0  0  0  0  0
  -10.5198    8.7475  -23.9280 C   0  0  0  0  0  0  0  0  0  0  0  0
  -10.4617    7.9557  -25.0284 N   0  0  0  0  0  0  0  0  0  0  0  0
  -10.6792    8.4040  -26.2668 C   0  0  0  0  0  0  0  0  0  0  0  0
  -10.6147    7.5628  -27.4074 N   0  0  0  0  0  0  0  0  0  0  0  0
  -13.7811   12.8809  -25.4272 O   0  0  0  0  0  0  0  0  0  0  0  0
  -12.1977   15.8631  -24.3710 O   0  0  0  0  0  0  0  0  0  0  0  0
  -12.2884   14.4274  -21.0225 H   0  0  0  0  0  0  0  0  0  0  0  0
  -13.2808   12.9383  -21.4978 H   0  0  0  0  0  0  0  0  0  0  0  0
  -11.0833   14.3401  -22.9264 H   0  0  0  0  0  0  0  0  0  0  0  0
  -13.9367   14.7991  -23.9132 H   0  0  0  0  0  0  0  0  0  0  0  0
  -12.5059   14.3142  -26.2563 H   0  0  0  0  0  0  0  0  0  0  0  0
  -10.5919   13.5732  -24.8172 H   0  0  0  0  0  0  0  0  0  0  0  0
  -11.7119   12.6436  -27.6484 H   0  0  0  0  0  0  0  0  0  0  0  0
  -10.3388    8.3538  -22.9419 H   0  0  0  0  0  0  0  0  0  0  0  0
  -10.8562    6.5637  -27.3329 H   0  0  0  0  0  0  0  0  0  0  0  0
  -10.3225    7.9540  -28.3237 H   0  0  0  0  0  0  0  0  0  0  0  0
  -14.6231   13.2627  -25.0827 H   0  0  0  0  0  0  0  0  0  0  0  0
  -11.2171   15.6557  -24.2563 H   0  0  0  0  0  0  0  0  0  0  0  0
  1  2  1  0
  2  3  1  0
  3  4  1  0
  4  5  1  0
  5  6  1  0
  5  7  1  0
  7  8  1  0
  8  9  2  0
  9 10  1  0
 10 11  2  0
 11 12  1  0
 12 13  2  0
 13 14  1  0
 14 15  2  0
 15 16  1  0
  4 17  1  0
  3 18  1  0
  6  2  1  0
 11  7  1  0
 15 10  1  0
  1 19  1  0
  1 20  1  0
  2 21  1  0
  3 22  1  0
  4 23  1  0
  5 24  1  0
  8 25  1  0
 13 26  1  0
 16 27  1  0
 16 28  1  0
 17 29  1  0
 18 30  1  0
M  RAD  1   1   2
M  END
$$$$

     RDKit          3D

 30 32  0  0  0  0  0  0  0  0999 V2000
  -14.0695   15.0957  -24.0564 C   0  0  0  0  0  3  0  0  0  0  0  0
  -13.4648   13.8160  -24.6350 C   0  0  0  0  0  0  0  0  0  0  0  0
  -11.9843   14.1161  -24.8628 C   0  0  0  0  0  0  0  0  0  0  0  0
  -11.3664   13.3130  -23.7542 C   0  0  0  0  0  0  0  0  0  0  0  0
  -12.3080   12.1628  -23.6390 C   0  0  0  0  0  0  0  0  0  0  0  0
  -13.5403   12.8117  -23.7073 O   0  0  0  0  0  0  0  0  0  0  0  0
  -12.2416   11.2006  -24.6763 N   0  0  0  0  0  0  0  0  0  0  0  0
  -13.2444   10.8072  -25.4807 C   0  0  0  0  0  0  0  0  0  0  0  0
  -12.8072    9.8752  -26.3466 N   0  0  0  0  0  0  0  0  0  0  0  0
  -11.5057    9.6490  -26.1149 C   0  0  0  0  0  0  0  0  0  0  0  0
  -11.1700   10.4894  -25.0643 C   0  0  0  0  0  0  0  0  0  0  0  0
   -9.9143   10.4573  -24.6350 N   0  0  0  0  0  0  0  0  0  0  0  0
   -8.9563    9.6671  -25.1517 C   0  0  0  0  0  0  0  0  0  0  0  0
   -9.3187    8.8652  -26.1698 N   0  0  0  0  0  0  0  0  0  0  0  0
  -10.5444    8.8227  -26.6703 C   0  0  0  0  0  0  0  0  0  0  0  0
  -10.9537    7.9903  -27.7392 N   0  0  0  0  0  0  0  0  0  0  0  0
  -10.0560   13.0224  -23.8978 O   0  0  0  0  0  0  0  0  0  0  0  0
  -11.6813   15.4463  -24.6546 O   0  0  0  0  0  0  0  0  0  0  0  0
  -15.1695   15.0907  -24.1133 H   0  0  0  0  0  0  0  0  0  0  0  0
  -13.7367   15.1730  -23.0006 H   0  0  0  0  0  0  0  0  0  0  0  0
  -13.9814   13.5864  -25.5882 H   0  0  0  0  0  0  0  0  0  0  0  0
  -11.6625   13.7708  -25.8698 H   0  0  0  0  0  0  0  0  0  0  0  0
  -11.4887   13.9263  -22.8159 H   0  0  0  0  0  0  0  0  0  0  0  0
  -12.2667   11.7158  -22.6091 H   0  0  0  0  0  0  0  0  0  0  0  0
  -14.2670   11.2123  -25.4116 H   0  0  0  0  0  0  0  0  0  0  0  0
   -7.9281    9.6769  -24.7604 H   0  0  0  0  0  0  0  0  0  0  0  0
  -11.2334    8.4163  -28.6493 H   0  0  0  0  0  0  0  0  0  0  0  0
  -10.9946    6.9509  -27.6734 H   0  0  0  0  0  0  0  0  0  0  0  0
   -9.5156   13.7772  -23.5269 H   0  0  0  0  0  0  0  0  0  0  0  0
  -10.8992   15.7177  -25.1875 H   0  0  0  0  0  0  0  0  0  0  0  0
  1  2  1  0
  2  3  1  0
  3  4  1  0
  4  5  1  0
  5  6  1  0
  5  7  1  0
  7  8  1  0
  8  9  2  0
  9 10  1  0
 10 11  2  0
 11 12  1  0
 12 13  2  0
 13 14  1  0
 14 15  2  0
 15 16  1  0
  4 17  1  0
  3 18  1  0
  6  2  1  0
 11  7  1  0
 15 10  1  0
  1 19  1  0
  1 20  1  0
  2 21  1  0
  3 22  1  0
  4 23  1  0
  5 24  1  0
  8 25  1  0
 13 26  1  0
 16 27  1  0
 16 28  1  0
 17 29  1  0
 18 30  1  0
M  RAD  1   1   2
M  END
$$$$

     RDKit          3D

 30 32  0  0  0  0  0  0  0  0999 V2000
  -13.7402   15.2380  -25.0366 C   0  0  0  0  0  3  0  0  0  0  0  0
  -13.4652   14.3059  -23.9124 C   0  0  0  0  0  0  0  0  0  0  0  0
  -12.0585   14.4009  -23.3684 C   0  0  0  0  0  0  0  0  0  0  0  0
  -11.3258   13.2527  -24.0390 C   0  0  0  0  0  0  0  0  0  0  0  0
  -12.3499   12.6903  -24.9275 C   0  0  0  0  0  0  0  0  0  0  0  0
  -13.5578   12.9653  -24.2445 O   0  0  0  0  0  0  0  0  0  0  0  0
  -12.2357   11.3604  -25.3506 N   0  0  0  0  0  0  0  0  0  0  0  0
  -13.3007   10.5486  -25.5908 C   0  0  0  0  0  0  0  0  0  0  0  0
  -12.8410    9.3435  -25.9799 N   0  0  0  0  0  0  0  0  0  0  0  0
  -11.5052    9.3597  -25.9961 C   0  0  0  0  0  0  0  0  0  0  0  0
  -11.1492   10.6300  -25.5993 C   0  0  0  0  0  0  0  0  0  0  0  0
   -9.8532   10.9354  -25.5233 N   0  0  0  0  0  0  0  0  0  0  0  0
   -8.8736   10.0587  -25.8166 C   0  0  0  0  0  0  0  0  0  0  0  0
   -9.2009    8.8176  -26.2046 N   0  0  0  0  0  0  0  0  0  0  0  0
  -10.5062    8.4575  -26.2979 C   0  0  0  0  0  0  0  0  0  0  0  0
  -10.8749    7.1680  -26.7005 N   0  0  0  0  0  0  0  0  0  0  0  0
  -10.8235   12.4570  -23.0591 O   0  0  0  0  0  0  0  0  0  0  0  0
  -11.4657   15.6184  -23.6091 O   0  0  0  0  0  0  0  0  0  0  0  0
  -12.9105   15.9584  -25.2434 H   0  0  0  0  0  0  0  0  0  0  0  0
  -14.1162   14.7622  -25.9576 H   0  0  0  0  0  0  0  0  0  0  0  0
  -14.2181   14.5153  -23.0982 H   0  0  0  0  0  0  0  0  0  0  0  0
  -12.1304   14.2655  -22.2702 H   0  0  0  0  0  0  0  0  0  0  0  0
  -10.4929   13.6751  -24.6728 H   0  0  0  0  0  0  0  0  0  0  0  0
  -12.4044   13.3497  -25.8398 H   0  0  0  0  0  0  0  0  0  0  0  0
  -14.3557   10.7704  -25.5037 H   0  0  0  0  0  0  0  0  0  0  0  0
   -7.8164   10.3324  -25.7468 H   0  0  0  0  0  0  0  0  0  0  0  0
  -10.6964    6.8333  -27.6640 H   0  0  0  0  0  0  0  0  0  0  0  0
  -11.3348    6.5227  -26.0391 H   0  0  0  0  0  0  0  0  0  0  0  0
   -9.8879   12.7383  -22.8733 H   0  0  0  0  0  0  0  0  0  0  0  0
  -11.0333   15.6160  -24.4914 H   0  0  0  0  0  0  0  0  0  0  0  0
  1  2  1  0
  2  3  1  0
  3  4  1  0
  4  5  1  0
  5  6  1  0
  5  7  1  0
  7  8  1  0
  8  9  2  0
  9 10  1  0
 10 11  2  0
 11 12  1  0
 12 13  2  0
 13 14  1  0
 14 15  2  0
 15 16  1  0
  4 17  1  0
  3 18  1  0
  6  2  1  0
 11  7  1  0
 15 10  1  0
  1 19  1  0
  1 20  1  0
  2 21  1  0
  3 22  1  0
  4 23  1  0
  5 24  1  0
  8 25  1  0
 13 26  1  0
 16 27  1  0
 16 28  1  0
 17 29  1  0
 18 30  1  0
M  RAD  1   1   2
M  END
$$$$

     RDKit          3D

 30 32  0  0  0  0  0  0  0  0999 V2000
  -13.0881   14.0141  -22.0300 C   0  0  0  0  0  3  0  0  0  0  0  0
  -13.4993   13.8570  -23.4744 C   0  0  0  0  0  0  0  0  0  0  0  0
  -12.7844   14.8308  -24.3871 C   0  0  0  0  0  0  0  0  0  0  0  0
  -11.9673   13.9503  -25.2939 C   0  0  0  0  0  0  0  0  0  0  0  0
  -12.0570   12.6097  -24.5910 C   0  0  0  0  0  0  0  0  0  0  0  0
  -13.2821   12.5909  -23.9665 O   0  0  0  0  0  0  0  0  0  0  0  0
  -11.8726   11.5182  -25.5190 N   0  0  0  0  0  0  0  0  0  0  0  0
  -12.3458   11.4133  -26.7726 C   0  0  0  0  0  0  0  0  0  0  0  0
  -11.9276   10.2207  -27.2724 N   0  0  0  0  0  0  0  0  0  0  0  0
  -11.1991    9.5676  -26.3613 C   0  0  0  0  0  0  0  0  0  0  0  0
  -11.1694   10.4027  -25.2462 C   0  0  0  0  0  0  0  0  0  0  0  0
  -10.4888    9.9650  -24.1793 N   0  0  0  0  0  0  0  0  0  0  0  0
   -9.8486    8.7847  -24.1371 C   0  0  0  0  0  0  0  0  0  0  0  0
   -9.8773    7.9804  -25.2112 N   0  0  0  0  0  0  0  0  0  0  0  0
  -10.5372    8.3363  -26.3313 C   0  0  0  0  0  0  0  0  0  0  0  0
  -10.6103    7.5471  -27.4919 N   0  0  0  0  0  0  0  0  0  0  0  0
  -10.6201   14.3400  -25.3183 O   0  0  0  0  0  0  0  0  0  0  0  0
  -11.9521   15.6793  -23.6726 O   0  0  0  0  0  0  0  0  0  0  0  0
  -12.4495   14.8877  -21.8476 H   0  0  0  0  0  0  0  0  0  0  0  0
  -12.7176   13.0761  -21.5786 H   0  0  0  0  0  0  0  0  0  0  0  0
  -14.6161   14.0243  -23.4970 H   0  0  0  0  0  0  0  0  0  0  0  0
  -13.5605   15.3811  -24.9569 H   0  0  0  0  0  0  0  0  0  0  0  0
  -12.3263   13.9221  -26.3214 H   0  0  0  0  0  0  0  0  0  0  0  0
  -11.2667   12.6144  -23.8113 H   0  0  0  0  0  0  0  0  0  0  0  0
  -12.9510   12.1265  -27.3160 H   0  0  0  0  0  0  0  0  0  0  0  0
   -9.3130    8.4861  -23.2402 H   0  0  0  0  0  0  0  0  0  0  0  0
  -10.7291    6.5242  -27.4219 H   0  0  0  0  0  0  0  0  0  0  0  0
  -10.5471    7.9705  -28.4406 H   0  0  0  0  0  0  0  0  0  0  0  0
  -10.0210   13.5681  -25.0887 H   0  0  0  0  0  0  0  0  0  0  0  0
  -11.0174   15.6685  -23.9808 H   0  0  0  0  0  0  0  0  0  0  0  0
  1  2  1  0
  2  3  1  0
  3  4  1  0
  4  5  1  0
  5  6  1  0
  5  7  1  0
  7  8  1  0
  8  9  2  0
  9 10  1  0
 10 11  2  0
 11 12  1  0
 12 13  2  0
 13 14  1  0
 14 15  2  0
 15 16  1  0
  4 17  1  0
  3 18  1  0
  6  2  1  0
 11  7  1  0
 15 10  1  0
  1 19  1  0
  1 20  1  0
  2 21  1  0
  3 22  1  0
  4 23  1  0
  5 24  1  0
  8 25  1  0
 13 26  1  0
 16 27  1  0
 16 28  1  0
 17 29  1  0
 18 30  1  0
M  RAD  1   1   2
M  END
$$$$

     RDKit          3D

 30 32  0  0  0  0  0  0  0  0999 V2000
  -13.0123   16.0240  -24.8219 C   0  0  0  0  0  3  0  0  0  0  0  0
  -13.1955   14.5484  -24.5288 C   0  0  0  0  0  0  0  0  0  0  0  0
  -12.3590   14.1964  -23.3406 C   0  0  0  0  0  0  0  0  0  0  0  0
  -11.3880   13.1862  -23.8510 C   0  0  0  0  0  0  0  0  0  0  0  0
  -11.7552   13.0162  -25.3005 C   0  0  0  0  0  0  0  0  0  0  0  0
  -12.8572   13.7537  -25.5731 O   0  0  0  0  0  0  0  0  0  0  0  0
  -11.9848   11.6074  -25.5295 N   0  0  0  0  0  0  0  0  0  0  0  0
  -13.1265   10.9184  -25.6379 C   0  0  0  0  0  0  0  0  0  0  0  0
  -12.8350    9.6237  -25.8501 N   0  0  0  0  0  0  0  0  0  0  0  0
  -11.4898    9.4782  -25.8785 C   0  0  0  0  0  0  0  0  0  0  0  0
  -10.9785   10.7234  -25.6772 C   0  0  0  0  0  0  0  0  0  0  0  0
   -9.6170   10.8735  -25.6576 N   0  0  0  0  0  0  0  0  0  0  0  0
   -8.7725    9.8439  -25.8285 C   0  0  0  0  0  0  0  0  0  0  0  0
   -9.3058    8.6273  -26.0250 N   0  0  0  0  0  0  0  0  0  0  0  0
  -10.6309    8.4232  -26.0537 C   0  0  0  0  0  0  0  0  0  0  0  0
  -11.1909    7.1365  -26.2615 N   0  0  0  0  0  0  0  0  0  0  0  0
  -11.5015   11.9843  -23.1421 O   0  0  0  0  0  0  0  0  0  0  0  0
  -13.1265   13.6432  -22.2985 O   0  0  0  0  0  0  0  0  0  0  0  0
  -11.9425   16.3140  -24.6650 H   0  0  0  0  0  0  0  0  0  0  0  0
  -13.6726   16.5818  -24.1039 H   0  0  0  0  0  0  0  0  0  0  0  0
  -14.2720   14.3678  -24.2399 H   0  0  0  0  0  0  0  0  0  0  0  0
  -11.8265   15.0675  -22.9084 H   0  0  0  0  0  0  0  0  0  0  0  0
  -10.3239   13.5017  -23.7376 H   0  0  0  0  0  0  0  0  0  0  0  0
  -10.8658   13.3199  -25.9271 H   0  0  0  0  0  0  0  0  0  0  0  0
  -14.1337   11.3623  -25.5619 H   0  0  0  0  0  0  0  0  0  0  0  0
   -7.6980    9.9978  -25.8072 H   0  0  0  0  0  0  0  0  0  0  0  0
  -10.8081    6.3323  -25.7196 H   0  0  0  0  0  0  0  0  0  0  0  0
  -11.9683    6.9255  -26.9242 H   0  0  0  0  0  0  0  0  0  0  0  0
  -12.0281   12.0620  -22.3250 H   0  0  0  0  0  0  0  0  0  0  0  0
  -14.0347   13.4043  -22.5890 H   0  0  0  0  0  0  0  0  0  0  0  0
  1  2  1  0
  2  3  1  0
  3  4  1  0
  4  5  1  0
  5  6  1  0
  5  7  1  0
  7  8  1  0
  8  9  2  0
  9 10  1  0
 10 11  2  0
 11 12  1  0
 12 13  2  0
 13 14  1  0
 14 15  2  0
 15 16  1  0
  4 17  1  0
  3 18  1  0
  6  2  1  0
 11  7  1  0
 15 10  1  0
  1 19  1  0
  1 20  1  0
  2 21  1  0
  3 22  1  0
  4 23  1  0
  5 24  1  0
  8 25  1  0
 13 26  1  0
 16 27  1  0
 16 28  1  0
 17 29  1  0
 18 30  1  0
M  RAD  1   1   2
M  END
$$$$

     RDKit          3D

 30 32  0  0  0  0  0  0  0  0999 V2000
  -13.6932   13.3542  -22.5053 C   0  0  0  0  0  3  0  0  0  0  0  0
  -12.3237   13.8350  -23.0054 C   0  0  0  0  0  0  0  0  0  0  0  0
  -12.5988   14.8355  -24.1022 C   0  0  0  0  0  0  0  0  0  0  0  0
  -12.5710   13.9050  -25.3231 C   0  0  0  0  0  0  0  0  0  0  0  0
  -11.4352   12.9775  -24.8719 C   0  0  0  0  0  0  0  0  0  0  0  0
  -11.6918   12.7571  -23.5507 O   0  0  0  0  0  0  0  0  0  0  0  0
  -11.4033   11.7892  -25.6848 N   0  0  0  0  0  0  0  0  0  0  0  0
  -11.7777   11.7013  -26.9682 C   0  0  0  0  0  0  0  0  0  0  0  0
  -11.6093   10.4427  -27.3919 N   0  0  0  0  0  0  0  0  0  0  0  0
  -11.1167    9.7404  -26.3344 C   0  0  0  0  0  0  0  0  0  0  0  0
  -10.9853   10.5899  -25.2527 C   0  0  0  0  0  0  0  0  0  0  0  0
  -10.5112   10.0779  -24.1083 N   0  0  0  0  0  0  0  0  0  0  0  0
  -10.1688    8.7814  -23.9964 C   0  0  0  0  0  0  0  0  0  0  0  0
  -10.3072    7.9694  -25.0720 N   0  0  0  0  0  0  0  0  0  0  0  0
  -10.7756    8.4157  -26.2484 C   0  0  0  0  0  0  0  0  0  0  0  0
  -10.9209    7.5719  -27.3708 N   0  0  0  0  0  0  0  0  0  0  0  0
  -13.7246   13.1565  -25.3262 O   0  0  0  0  0  0  0  0  0  0  0  0
  -11.5126   15.7073  -24.1432 O   0  0  0  0  0  0  0  0  0  0  0  0
  -13.7252   13.2598  -21.4170 H   0  0  0  0  0  0  0  0  0  0  0  0
  -14.5174   13.9010  -22.9613 H   0  0  0  0  0  0  0  0  0  0  0  0
  -11.7763   14.3472  -22.1999 H   0  0  0  0  0  0  0  0  0  0  0  0
  -13.5575   15.3467  -24.0098 H   0  0  0  0  0  0  0  0  0  0  0  0
  -12.3428   14.4293  -26.2440 H   0  0  0  0  0  0  0  0  0  0  0  0
  -10.5046   13.5841  -24.9617 H   0  0  0  0  0  0  0  0  0  0  0  0
  -12.1523   12.5233  -27.5506 H   0  0  0  0  0  0  0  0  0  0  0  0
   -9.7810    8.3688  -23.0557 H   0  0  0  0  0  0  0  0  0  0  0  0
  -11.4647    7.8438  -28.1950 H   0  0  0  0  0  0  0  0  0  0  0  0
  -10.4600    6.6457  -27.3573 H   0  0  0  0  0  0  0  0  0  0  0  0
  -13.5886   12.2244  -24.9808 H   0  0  0  0  0  0  0  0  0  0  0  0
  -11.3000   16.0413  -25.0308 H   0  0  0  0  0  0  0  0  0  0  0  0
  1  2  1  0
  2  3  1  0
  3  4  1  0
  4  5  1  0
  5  6  1  0
  5  7  1  0
  7  8  1  0
  8  9  2  0
  9 10  1  0
 10 11  2  0
 11 12  1  0
 12 13  2  0
 13 14  1  0
 14 15  2  0
 15 16  1  0
  4 17  1  0
  3 18  1  0
  6  2  1  0
 11  7  1  0
 15 10  1  0
  1 19  1  0
  1 20  1  0
  2 21  1  0
  3 22  1  0
  4 23  1  0
  5 24  1  0
  8 25  1  0
 13 26  1  0
 16 27  1  0
 16 28  1  0
 17 29  1  0
 18 30  1  0
M  RAD  1   1   2
M  END
$$$$

     RDKit          3D

 30 32  0  0  0  0  0  0  0  0999 V2000
  -11.6676   13.7738  -21.7189 C   0  0  0  0  0  3  0  0  0  0  0  0
  -12.4756   13.6223  -22.9711 C   0  0  0  0  0  0  0  0  0  0  0  0
  -12.0480   14.6793  -23.9546 C   0  0  0  0  0  0  0  0  0  0  0  0
  -11.9322   13.9253  -25.2791 C   0  0  0  0  0  0  0  0  0  0  0  0
  -12.5753   12.5929  -24.9430 C   0  0  0  0  0  0  0  0  0  0  0  0
  -12.2886   12.3929  -23.5952 O   0  0  0  0  0  0  0  0  0  0  0  0
  -11.9582   11.5759  -25.7604 N   0  0  0  0  0  0  0  0  0  0  0  0
  -11.7572   11.6473  -27.0959 C   0  0  0  0  0  0  0  0  0  0  0  0
  -11.1601   10.5052  -27.4673 N   0  0  0  0  0  0  0  0  0  0  0  0
  -10.9780    9.7105  -26.3951 C   0  0  0  0  0  0  0  0  0  0  0  0
  -11.4930   10.4001  -25.2904 C   0  0  0  0  0  0  0  0  0  0  0  0
  -11.4336    9.8165  -24.0798 N   0  0  0  0  0  0  0  0  0  0  0  0
  -10.8940    8.5878  -23.8935 C   0  0  0  0  0  0  0  0  0  0  0  0
  -10.3942    7.9216  -24.9736 N   0  0  0  0  0  0  0  0  0  0  0  0
  -10.4342    8.4673  -26.1942 C   0  0  0  0  0  0  0  0  0  0  0  0
   -9.9102    7.7595  -27.3023 N   0  0  0  0  0  0  0  0  0  0  0  0
  -12.6357   14.6112  -26.2638 O   0  0  0  0  0  0  0  0  0  0  0  0
  -13.0915   15.6185  -24.0777 O   0  0  0  0  0  0  0  0  0  0  0  0
  -11.6918   12.8905  -21.0652 H   0  0  0  0  0  0  0  0  0  0  0  0
  -10.6373   14.0704  -21.9421 H   0  0  0  0  0  0  0  0  0  0  0  0
  -13.5619   13.7142  -22.7151 H   0  0  0  0  0  0  0  0  0  0  0  0
  -11.0894   15.1585  -23.7038 H   0  0  0  0  0  0  0  0  0  0  0  0
  -10.8791   13.7759  -25.5411 H   0  0  0  0  0  0  0  0  0  0  0  0
  -13.6610   12.6908  -25.1445 H   0  0  0  0  0  0  0  0  0  0  0  0
  -12.0535   12.5087  -27.6937 H   0  0  0  0  0  0  0  0  0  0  0  0
  -10.8466    8.1187  -22.9181 H   0  0  0  0  0  0  0  0  0  0  0  0
  -10.2603    6.8239  -27.6085 H   0  0  0  0  0  0  0  0  0  0  0  0
   -9.1260    8.1549  -27.8799 H   0  0  0  0  0  0  0  0  0  0  0  0
  -13.6140   14.4513  -26.1472 H   0  0  0  0  0  0  0  0  0  0  0  0
  -12.7250   16.5174  -23.9289 H   0  0  0  0  0  0  0  0  0  0  0  0
  1  2  1  0
  2  3  1  0
  3  4  1  0
  4  5  1  0
  5  6  1  0
  5  7  1  0
  7  8  1  0
  8  9  2  0
  9 10  1  0
 10 11  2  0
 11 12  1  0
 12 13  2  0
 13 14  1  0
 14 15  2  0
 15 16  1  0
  4 17  1  0
  3 18  1  0
  6  2  1  0
 11  7  1  0
 15 10  1  0
  1 19  1  0
  1 20  1  0
  2 21  1  0
  3 22  1  0
  4 23  1  0
  5 24  1  0
  8 25  1  0
 13 26  1  0
 16 27  1  0
 16 28  1  0
 17 29  1  0
 18 30  1  0
M  RAD  1   1   2
M  END
$$$$

     RDKit          3D

 30 32  0  0  0  0  0  0  0  0999 V2000
  -14.0980   14.4243  -25.1308 C   0  0  0  0  0  3  0  0  0  0  0  0
  -12.6138   14.7922  -25.0597 C   0  0  0  0  0  0  0  0  0  0  0  0
  -12.1842   14.6945  -23.6127 C   0  0  0  0  0  0  0  0  0  0  0  0
  -12.0372   13.1697  -23.5150 C   0  0  0  0  0  0  0  0  0  0  0  0
  -11.4673   12.8774  -24.8759 C   0  0  0  0  0  0  0  0  0  0  0  0
  -11.9323   13.8102  -25.7566 O   0  0  0  0  0  0  0  0  0  0  0  0
  -11.7918   11.5189  -25.2317 N   0  0  0  0  0  0  0  0  0  0  0  0
  -12.9932   10.9660  -25.3101 C   0  0  0  0  0  0  0  0  0  0  0  0
  -12.8719    9.6730  -25.6754 N   0  0  0  0  0  0  0  0  0  0  0  0
  -11.5813    9.4072  -25.8292 C   0  0  0  0  0  0  0  0  0  0  0  0
  -10.8801   10.5661  -25.5520 C   0  0  0  0  0  0  0  0  0  0  0  0
   -9.5195   10.5908  -25.6297 N   0  0  0  0  0  0  0  0  0  0  0  0
   -8.8321    9.4925  -25.9764 C   0  0  0  0  0  0  0  0  0  0  0  0
   -9.5223    8.3759  -26.2425 N   0  0  0  0  0  0  0  0  0  0  0  0
  -10.8524    8.2850  -26.1850 C   0  0  0  0  0  0  0  0  0  0  0  0
  -11.5670    7.0879  -26.4720 N   0  0  0  0  0  0  0  0  0  0  0  0
  -11.2193   12.7948  -22.4744 O   0  0  0  0  0  0  0  0  0  0  0  0
  -13.1633   15.0817  -22.7270 O   0  0  0  0  0  0  0  0  0  0  0  0
  -14.4090   14.7063  -26.1749 H   0  0  0  0  0  0  0  0  0  0  0  0
  -14.6820   14.9831  -24.3723 H   0  0  0  0  0  0  0  0  0  0  0  0
  -12.4360   15.8013  -25.4801 H   0  0  0  0  0  0  0  0  0  0  0  0
  -11.2018   15.1303  -23.4287 H   0  0  0  0  0  0  0  0  0  0  0  0
  -13.0629   12.7774  -23.4513 H   0  0  0  0  0  0  0  0  0  0  0  0
  -10.3600   13.0094  -24.7930 H   0  0  0  0  0  0  0  0  0  0  0  0
  -13.9217   11.5070  -25.1027 H   0  0  0  0  0  0  0  0  0  0  0  0
   -7.7394    9.4847  -26.0464 H   0  0  0  0  0  0  0  0  0  0  0  0
  -11.7125    6.7831  -27.4388 H   0  0  0  0  0  0  0  0  0  0  0  0
  -11.9328    6.5399  -25.6550 H   0  0  0  0  0  0  0  0  0  0  0  0
  -11.6897   12.0346  -22.0047 H   0  0  0  0  0  0  0  0  0  0  0  0
  -13.2172   16.0639  -22.6935 H   0  0  0  0  0  0  0  0  0  0  0  0
  1  2  1  0
  2  3  1  0
  3  4  1  0
  4  5  1  0
  5  6  1  0
  5  7  1  0
  7  8  1  0
  8  9  2  0
  9 10  1  0
 10 11  2  0
 11 12  1  0
 12 13  2  0
 13 14  1  0
 14 15  2  0
 15 16  1  0
  4 17  1  0
  3 18  1  0
  6  2  1  0
 11  7  1  0
 15 10  1  0
  1 19  1  0
  1 20  1  0
  2 21  1  0
  3 22  1  0
  4 23  1  0
  5 24  1  0
  8 25  1  0
 13 26  1  0
 16 27  1  0
 16 28  1  0
 17 29  1  0
 18 30  1  0
M  RAD  1   1   2
M  END
$$$$

     RDKit          3D

 30 32  0  0  0  0  0  0  0  0999 V2000
  -12.2103   16.1334  -25.0161 C   0  0  0  0  0  3  0  0  0  0  0  0
  -12.4037   14.6300  -24.9264 C   0  0  0  0  0  0  0  0  0  0  0  0
  -13.0446   14.2013  -23.6576 C   0  0  0  0  0  0  0  0  0  0  0  0
  -12.2136   13.0541  -23.2038 C   0  0  0  0  0  0  0  0  0  0  0  0
  -11.2483   12.8106  -24.3247 C   0  0  0  0  0  0  0  0  0  0  0  0
  -11.2431   13.9432  -25.1217 O   0  0  0  0  0  0  0  0  0  0  0  0
  -11.5642   11.6098  -25.0768 N   0  0  0  0  0  0  0  0  0  0  0  0
  -12.7320   11.3253  -25.6770 C   0  0  0  0  0  0  0  0  0  0  0  0
  -12.6714   10.1257  -26.2831 N   0  0  0  0  0  0  0  0  0  0  0  0
  -11.4459    9.6538  -26.0576 C   0  0  0  0  0  0  0  0  0  0  0  0
  -10.7225   10.5689  -25.2981 C   0  0  0  0  0  0  0  0  0  0  0  0
   -9.4522   10.3259  -24.9351 N   0  0  0  0  0  0  0  0  0  0  0  0
   -8.8825    9.1701  -25.3218 C   0  0  0  0  0  0  0  0  0  0  0  0
   -9.5712    8.2837  -26.0528 N   0  0  0  0  0  0  0  0  0  0  0  0
  -10.8423    8.4730  -26.4443 C   0  0  0  0  0  0  0  0  0  0  0  0
  -11.5661    7.5245  -27.2215 N   0  0  0  0  0  0  0  0  0  0  0  0
  -12.9321   11.9298  -22.8446 O   0  0  0  0  0  0  0  0  0  0  0  0
  -14.3810   13.8449  -23.7929 O   0  0  0  0  0  0  0  0  0  0  0  0
  -12.8631   16.6014  -25.7757 H   0  0  0  0  0  0  0  0  0  0  0  0
  -11.1633   16.4132  -25.2187 H   0  0  0  0  0  0  0  0  0  0  0  0
  -13.1011   14.3595  -25.7681 H   0  0  0  0  0  0  0  0  0  0  0  0
  -13.0196   15.0610  -22.9495 H   0  0  0  0  0  0  0  0  0  0  0  0
  -11.6652   13.3878  -22.2748 H   0  0  0  0  0  0  0  0  0  0  0  0
  -10.2337   12.7092  -23.8841 H   0  0  0  0  0  0  0  0  0  0  0  0
  -13.5805   11.9863  -25.6576 H   0  0  0  0  0  0  0  0  0  0  0  0
   -7.8437    8.9235  -25.0501 H   0  0  0  0  0  0  0  0  0  0  0  0
  -11.0905    7.1258  -28.0750 H   0  0  0  0  0  0  0  0  0  0  0  0
  -12.5249    7.2551  -26.9334 H   0  0  0  0  0  0  0  0  0  0  0  0
  -13.2597   12.0730  -21.9157 H   0  0  0  0  0  0  0  0  0  0  0  0
  -14.8673   14.3545  -24.4614 H   0  0  0  0  0  0  0  0  0  0  0  0
  1  2  1  0
  2  3  1  0
  3  4  1  0
  4  5  1  0
  5  6  1  0
  5  7  1  0
  7  8  1  0
  8  9  2  0
  9 10  1  0
 10 11  2  0
 11 12  1  0
 12 13  2  0
 13 14  1  0
 14 15  2  0
 15 16  1  0
  4 17  1  0
  3 18  1  0
  6  2  1  0
 11  7  1  0
 15 10  1  0
  1 19  1  0
  1 20  1  0
  2 21  1  0
  3 22  1  0
  4 23  1  0
  5 24  1  0
  8 25  1  0
 13 26  1  0
 16 27  1  0
 16 28  1  0
 17 29  1  0
 18 30  1  0
M  RAD  1   1   2
M  END
$$$$

     RDKit          3D

 30 32  0  0  0  0  0  0  0  0999 V2000
  -12.0654   14.2043  -21.7913 C   0  0  0  0  0  3  0  0  0  0  0  0
  -12.6268   13.7014  -23.1010 C   0  0  0  0  0  0  0  0  0  0  0  0
  -12.5704   14.7710  -24.1596 C   0  0  0  0  0  0  0  0  0  0  0  0
  -12.2224   13.9213  -25.3862 C   0  0  0  0  0  0  0  0  0  0  0  0
  -11.3097   12.9031  -24.7237 C   0  0  0  0  0  0  0  0  0  0  0  0
  -11.9694   12.5959  -23.5682 O   0  0  0  0  0  0  0  0  0  0  0  0
  -11.1525   11.7656  -25.6069 N   0  0  0  0  0  0  0  0  0  0  0  0
  -11.1108   11.8665  -26.9401 C   0  0  0  0  0  0  0  0  0  0  0  0
  -10.9580   10.6219  -27.4200 N   0  0  0  0  0  0  0  0  0  0  0  0
  -10.9050    9.7536  -26.3964 C   0  0  0  0  0  0  0  0  0  0  0  0
  -11.0298   10.4802  -25.2134 C   0  0  0  0  0  0  0  0  0  0  0  0
  -11.0118    9.8728  -24.0144 N   0  0  0  0  0  0  0  0  0  0  0  0
  -10.8709    8.5401  -23.9533 C   0  0  0  0  0  0  0  0  0  0  0  0
  -10.7504    7.8354  -25.0861 N   0  0  0  0  0  0  0  0  0  0  0  0
  -10.7618    8.3870  -26.3005 C   0  0  0  0  0  0  0  0  0  0  0  0
  -10.6349    7.6470  -27.5006 N   0  0  0  0  0  0  0  0  0  0  0  0
  -13.4081   13.3040  -25.7788 O   0  0  0  0  0  0  0  0  0  0  0  0
  -13.7688   15.4369  -24.3156 O   0  0  0  0  0  0  0  0  0  0  0  0
  -12.8303   14.1535  -20.9785 H   0  0  0  0  0  0  0  0  0  0  0  0
  -11.7257   15.2472  -21.9087 H   0  0  0  0  0  0  0  0  0  0  0  0
  -13.6994   13.3933  -22.9238 H   0  0  0  0  0  0  0  0  0  0  0  0
  -11.7149   15.4515  -23.9974 H   0  0  0  0  0  0  0  0  0  0  0  0
  -11.7364   14.4969  -26.1714 H   0  0  0  0  0  0  0  0  0  0  0  0
  -10.3324   13.4397  -24.5577 H   0  0  0  0  0  0  0  0  0  0  0  0
  -11.1869   12.7923  -27.5355 H   0  0  0  0  0  0  0  0  0  0  0  0
  -10.8550    8.0332  -22.9731 H   0  0  0  0  0  0  0  0  0  0  0  0
  -11.2179    6.8016  -27.6285 H   0  0  0  0  0  0  0  0  0  0  0  0
   -9.9659    7.9595  -28.2278 H   0  0  0  0  0  0  0  0  0  0  0  0
  -14.0765   14.0373  -25.8787 H   0  0  0  0  0  0  0  0  0  0  0  0
  -13.7116   15.9355  -25.1798 H   0  0  0  0  0  0  0  0  0  0  0  0
  1  2  1  0
  2  3  1  0
  3  4  1  0
  4  5  1  0
  5  6  1  0
  5  7  1  0
  7  8  1  0
  8  9  2  0
  9 10  1  0
 10 11  2  0
 11 12  1  0
 12 13  2  0
 13 14  1  0
 14 15  2  0
 15 16  1  0
  4 17  1  0
  3 18  1  0
  6  2  1  0
 11  7  1  0
 15 10  1  0
  1 19  1  0
  1 20  1  0
  2 21  1  0
  3 22  1  0
  4 23  1  0
  5 24  1  0
  8 25  1  0
 13 26  1  0
 16 27  1  0
 16 28  1  0
 17 29  1  0
 18 30  1  0
M  RAD  1   1   2
M  END
$$$$

     RDKit          3D

 30 32  0  0  0  0  0  0  0  0999 V2000
  -13.4663   14.1704  -22.1339 C   0  0  0  0  0  3  0  0  0  0  0  0
  -13.5249   13.9194  -23.6233 C   0  0  0  0  0  0  0  0  0  0  0  0
  -12.5797   14.8439  -24.3128 C   0  0  0  0  0  0  0  0  0  0  0  0
  -11.5368   13.9394  -24.9176 C   0  0  0  0  0  0  0  0  0  0  0  0
  -11.8985   12.5898  -24.3929 C   0  0  0  0  0  0  0  0  0  0  0  0
  -13.2039   12.6239  -23.9600 O   0  0  0  0  0  0  0  0  0  0  0  0
  -11.7343   11.5277  -25.3670 N   0  0  0  0  0  0  0  0  0  0  0  0
  -12.1791   11.4910  -26.6325 C   0  0  0  0  0  0  0  0  0  0  0  0
  -11.8316   10.3378  -27.2271 N   0  0  0  0  0  0  0  0  0  0  0  0
  -11.1544    9.6243  -26.3311 C   0  0  0  0  0  0  0  0  0  0  0  0
  -11.0919   10.3626  -25.1711 C   0  0  0  0  0  0  0  0  0  0  0  0
  -10.4454    9.8481  -24.0928 N   0  0  0  0  0  0  0  0  0  0  0  0
   -9.8692    8.6375  -24.1389 C   0  0  0  0  0  0  0  0  0  0  0  0
   -9.9424    7.9350  -25.2800 N   0  0  0  0  0  0  0  0  0  0  0  0
  -10.5533    8.3594  -26.3819 C   0  0  0  0  0  0  0  0  0  0  0  0
  -10.6381    7.6307  -27.5900 N   0  0  0  0  0  0  0  0  0  0  0  0
  -11.4721   14.0200  -26.2931 O   0  0  0  0  0  0  0  0  0  0  0  0
  -12.0052   15.7472  -23.4099 O   0  0  0  0  0  0  0  0  0  0  0  0
  -13.0992   13.2855  -21.5712 H   0  0  0  0  0  0  0  0  0  0  0  0
  -14.4760   14.4005  -21.7172 H   0  0  0  0  0  0  0  0  0  0  0  0
  -14.5642   14.1205  -23.9553 H   0  0  0  0  0  0  0  0  0  0  0  0
  -13.0820   15.3878  -25.1469 H   0  0  0  0  0  0  0  0  0  0  0  0
  -10.5301   14.2814  -24.5360 H   0  0  0  0  0  0  0  0  0  0  0  0
  -11.2454   12.3749  -23.5260 H   0  0  0  0  0  0  0  0  0  0  0  0
  -12.7431   12.2557  -27.1500 H   0  0  0  0  0  0  0  0  0  0  0  0
   -9.3471    8.2284  -23.2595 H   0  0  0  0  0  0  0  0  0  0  0  0
  -11.0564    6.6755  -27.6261 H   0  0  0  0  0  0  0  0  0  0  0  0
  -10.2854    8.0180  -28.4987 H   0  0  0  0  0  0  0  0  0  0  0  0
  -12.2364   14.5542  -26.6729 H   0  0  0  0  0  0  0  0  0  0  0  0
  -12.3861   16.6205  -23.5975 H   0  0  0  0  0  0  0  0  0  0  0  0
  1  2  1  0
  2  3  1  0
  3  4  1  0
  4  5  1  0
  5  6  1  0
  5  7  1  0
  7  8  1  0
  8  9  2  0
  9 10  1  0
 10 11  2  0
 11 12  1  0
 12 13  2  0
 13 14  1  0
 14 15  2  0
 15 16  1  0
  4 17  1  0
  3 18  1  0
  6  2  1  0
 11  7  1  0
 15 10  1  0
  1 19  1  0
  1 20  1  0
  2 21  1  0
  3 22  1  0
  4 23  1  0
  5 24  1  0
  8 25  1  0
 13 26  1  0
 16 27  1  0
 16 28  1  0
 17 29  1  0
 18 30  1  0
M  RAD  1   1   2
M  END
$$$$

     RDKit          3D

 30 32  0  0  0  0  0  0  0  0999 V2000
  -14.2360   14.7676  -22.8677 C   0  0  0  0  0  3  0  0  0  0  0  0
  -13.4690   14.2166  -24.0502 C   0  0  0  0  0  0  0  0  0  0  0  0
  -12.0685   14.7923  -24.0610 C   0  0  0  0  0  0  0  0  0  0  0  0
  -11.3272   13.6799  -24.7919 C   0  0  0  0  0  0  0  0  0  0  0  0
  -12.0933   12.4664  -24.3041 C   0  0  0  0  0  0  0  0  0  0  0  0
  -13.3739   12.8547  -24.0399 O   0  0  0  0  0  0  0  0  0  0  0  0
  -11.9864   11.3959  -25.2610 N   0  0  0  0  0  0  0  0  0  0  0  0
  -12.7228   11.2141  -26.3558 C   0  0  0  0  0  0  0  0  0  0  0  0
  -12.3163   10.0833  -27.0040 N   0  0  0  0  0  0  0  0  0  0  0  0
  -11.3073    9.5746  -26.2748 C   0  0  0  0  0  0  0  0  0  0  0  0
  -11.1030   10.3905  -25.1923 C   0  0  0  0  0  0  0  0  0  0  0  0
  -10.1249   10.0897  -24.2898 N   0  0  0  0  0  0  0  0  0  0  0  0
   -9.3425    9.0145  -24.4168 C   0  0  0  0  0  0  0  0  0  0  0  0
   -9.5392    8.2200  -25.4682 N   0  0  0  0  0  0  0  0  0  0  0  0
  -10.4903    8.4626  -26.3966 C   0  0  0  0  0  0  0  0  0  0  0  0
  -10.7022    7.6299  -27.5058 N   0  0  0  0  0  0  0  0  0  0  0  0
  -11.4032   13.8335  -26.1691 O   0  0  0  0  0  0  0  0  0  0  0  0
  -11.5209   14.9220  -22.8070 O   0  0  0  0  0  0  0  0  0  0  0  0
  -13.4859   15.0434  -22.0988 H   0  0  0  0  0  0  0  0  0  0  0  0
  -14.7424   15.7192  -23.1715 H   0  0  0  0  0  0  0  0  0  0  0  0
  -13.9508   14.5207  -25.0199 H   0  0  0  0  0  0  0  0  0  0  0  0
  -12.0879   15.7327  -24.6395 H   0  0  0  0  0  0  0  0  0  0  0  0
  -10.2706   13.6238  -24.5039 H   0  0  0  0  0  0  0  0  0  0  0  0
  -11.6205   12.1875  -23.3182 H   0  0  0  0  0  0  0  0  0  0  0  0
  -13.5245   11.8330  -26.7167 H   0  0  0  0  0  0  0  0  0  0  0  0
   -8.5861    8.8404  -23.6593 H   0  0  0  0  0  0  0  0  0  0  0  0
  -11.5691    7.0711  -27.5608 H   0  0  0  0  0  0  0  0  0  0  0  0
   -9.9889    7.5857  -28.2536 H   0  0  0  0  0  0  0  0  0  0  0  0
  -12.1958   14.4015  -26.4309 H   0  0  0  0  0  0  0  0  0  0  0  0
  -11.5391   14.0575  -22.3627 H   0  0  0  0  0  0  0  0  0  0  0  0
  1  2  1  0
  2  3  1  0
  3  4  1  0
  4  5  1  0
  5  6  1  0
  5  7  1  0
  7  8  1  0
  8  9  2  0
  9 10  1  0
 10 11  2  0
 11 12  1  0
 12 13  2  0
 13 14  1  0
 14 15  2  0
 15 16  1  0
  4 17  1  0
  3 18  1  0
  6  2  1  0
 11  7  1  0
 15 10  1  0
  1 19  1  0
  1 20  1  0
  2 21  1  0
  3 22  1  0
  4 23  1  0
  5 24  1  0
  8 25  1  0
 13 26  1  0
 16 27  1  0
 16 28  1  0
 17 29  1  0
 18 30  1  0
M  RAD  1   1   2
M  END
$$$$

     RDKit          3D

 30 32  0  0  0  0  0  0  0  0999 V2000
  -13.5177   15.1601  -25.1366 C   0  0  0  0  0  3  0  0  0  0  0  0
  -13.4526   14.2938  -23.9102 C   0  0  0  0  0  0  0  0  0  0  0  0
  -12.0753   14.2901  -23.2866 C   0  0  0  0  0  0  0  0  0  0  0  0
  -11.3345   13.2009  -24.0642 C   0  0  0  0  0  0  0  0  0  0  0  0
  -12.3955   12.7787  -25.0565 C   0  0  0  0  0  0  0  0  0  0  0  0
  -13.5652   12.9457  -24.3197 O   0  0  0  0  0  0  0  0  0  0  0  0
  -12.2828   11.3939  -25.4329 N   0  0  0  0  0  0  0  0  0  0  0  0
  -13.3389   10.5893  -25.6493 C   0  0  0  0  0  0  0  0  0  0  0  0
  -12.8205    9.3914  -25.9757 N   0  0  0  0  0  0  0  0  0  0  0  0
  -11.4834    9.4492  -25.9628 C   0  0  0  0  0  0  0  0  0  0  0  0
  -11.1241   10.7384  -25.6133 C   0  0  0  0  0  0  0  0  0  0  0  0
   -9.8101   11.0549  -25.5300 N   0  0  0  0  0  0  0  0  0  0  0  0
   -8.8690   10.1204  -25.7858 C   0  0  0  0  0  0  0  0  0  0  0  0
   -9.2285    8.8624  -26.1268 N   0  0  0  0  0  0  0  0  0  0  0  0
  -10.5297    8.4884  -26.2257 C   0  0  0  0  0  0  0  0  0  0  0  0
  -10.9051    7.1746  -26.5818 N   0  0  0  0  0  0  0  0  0  0  0  0
  -10.9515   12.1712  -23.2228 O   0  0  0  0  0  0  0  0  0  0  0  0
  -11.4425   15.5045  -23.3755 O   0  0  0  0  0  0  0  0  0  0  0  0
  -13.7619   16.2061  -24.9419 H   0  0  0  0  0  0  0  0  0  0  0  0
  -14.1186   14.6898  -25.9412 H   0  0  0  0  0  0  0  0  0  0  0  0
  -14.2530   14.5498  -23.1929 H   0  0  0  0  0  0  0  0  0  0  0  0
  -12.1890   13.9809  -22.2386 H   0  0  0  0  0  0  0  0  0  0  0  0
  -10.4565   13.6733  -24.5483 H   0  0  0  0  0  0  0  0  0  0  0  0
  -12.3579   13.4567  -25.9264 H   0  0  0  0  0  0  0  0  0  0  0  0
  -14.4050   10.8380  -25.5796 H   0  0  0  0  0  0  0  0  0  0  0  0
   -7.8106   10.3412  -25.7280 H   0  0  0  0  0  0  0  0  0  0  0  0
  -11.5061    7.0342  -27.4109 H   0  0  0  0  0  0  0  0  0  0  0  0
  -10.5981    6.3548  -26.0405 H   0  0  0  0  0  0  0  0  0  0  0  0
  -11.1013   12.4800  -22.2862 H   0  0  0  0  0  0  0  0  0  0  0  0
  -10.4654   15.3485  -23.3489 H   0  0  0  0  0  0  0  0  0  0  0  0
  1  2  1  0
  2  3  1  0
  3  4  1  0
  4  5  1  0
  5  6  1  0
  5  7  1  0
  7  8  1  0
  8  9  2  0
  9 10  1  0
 10 11  2  0
 11 12  1  0
 12 13  2  0
 13 14  1  0
 14 15  2  0
 15 16  1  0
  4 17  1  0
  3 18  1  0
  6  2  1  0
 11  7  1  0
 15 10  1  0
  1 19  1  0
  1 20  1  0
  2 21  1  0
  3 22  1  0
  4 23  1  0
  5 24  1  0
  8 25  1  0
 13 26  1  0
 16 27  1  0
 16 28  1  0
 17 29  1  0
 18 30  1  0
M  RAD  1   1   2
M  END
$$$$

     RDKit          3D

 30 32  0  0  0  0  0  0  0  0999 V2000
  -11.8030   14.3590  -21.9570 C   0  0  0  0  0  3  0  0  0  0  0  0
  -12.6508   13.6008  -22.9571 C   0  0  0  0  0  0  0  0  0  0  0  0
  -12.9505   14.5446  -24.0980 C   0  0  0  0  0  0  0  0  0  0  0  0
  -12.5257   13.7164  -25.2977 C   0  0  0  0  0  0  0  0  0  0  0  0
  -11.4098   12.8840  -24.6587 C   0  0  0  0  0  0  0  0  0  0  0  0
  -11.9898   12.5139  -23.4693 O   0  0  0  0  0  0  0  0  0  0  0  0
  -11.1182   11.7429  -25.5069 N   0  0  0  0  0  0  0  0  0  0  0  0
  -10.7491   11.8953  -26.7864 C   0  0  0  0  0  0  0  0  0  0  0  0
  -10.5462   10.6813  -27.3221 N   0  0  0  0  0  0  0  0  0  0  0  0
  -10.7877    9.7652  -26.3797 C   0  0  0  0  0  0  0  0  0  0  0  0
  -11.1480   10.4478  -25.2381 C   0  0  0  0  0  0  0  0  0  0  0  0
  -11.4593    9.7992  -24.0916 N   0  0  0  0  0  0  0  0  0  0  0  0
  -11.4211    8.4561  -24.0488 C   0  0  0  0  0  0  0  0  0  0  0  0
  -11.0688    7.7577  -25.1611 N   0  0  0  0  0  0  0  0  0  0  0  0
  -10.7567    8.3852  -26.3074 C   0  0  0  0  0  0  0  0  0  0  0  0
  -10.3866    7.6796  -27.4798 N   0  0  0  0  0  0  0  0  0  0  0  0
  -12.0620   14.4848  -26.3418 O   0  0  0  0  0  0  0  0  0  0  0  0
  -14.2938   14.8942  -24.1547 O   0  0  0  0  0  0  0  0  0  0  0  0
  -11.9689   14.0081  -20.9138 H   0  0  0  0  0  0  0  0  0  0  0  0
  -12.2011   15.4153  -21.9660 H   0  0  0  0  0  0  0  0  0  0  0  0
  -13.5830   13.3080  -22.4101 H   0  0  0  0  0  0  0  0  0  0  0  0
  -12.3046   15.4485  -24.0876 H   0  0  0  0  0  0  0  0  0  0  0  0
  -13.3048   12.9956  -25.6053 H   0  0  0  0  0  0  0  0  0  0  0  0
  -10.5401   13.5545  -24.5312 H   0  0  0  0  0  0  0  0  0  0  0  0
  -10.6247   12.8489  -27.3339 H   0  0  0  0  0  0  0  0  0  0  0  0
  -11.6581    7.8803  -23.1656 H   0  0  0  0  0  0  0  0  0  0  0  0
   -9.3856    7.4350  -27.6048 H   0  0  0  0  0  0  0  0  0  0  0  0
  -11.0645    7.3990  -28.2123 H   0  0  0  0  0  0  0  0  0  0  0  0
  -12.8293   14.6092  -26.9765 H   0  0  0  0  0  0  0  0  0  0  0  0
  -14.3404   15.7526  -24.6762 H   0  0  0  0  0  0  0  0  0  0  0  0
  1  2  1  0
  2  3  1  0
  3  4  1  0
  4  5  1  0
  5  6  1  0
  5  7  1  0
  7  8  1  0
  8  9  2  0
  9 10  1  0
 10 11  2  0
 11 12  1  0
 12 13  2  0
 13 14  1  0
 14 15  2  0
 15 16  1  0
  4 17  1  0
  3 18  1  0
  6  2  1  0
 11  7  1  0
 15 10  1  0
  1 19  1  0
  1 20  1  0
  2 21  1  0
  3 22  1  0
  4 23  1  0
  5 24  1  0
  8 25  1  0
 13 26  1  0
 16 27  1  0
 16 28  1  0
 17 29  1  0
 18 30  1  0
M  RAD  1   1   2
M  END
$$$$

     RDKit          3D

 30 32  0  0  0  0  0  0  0  0999 V2000
  -13.7913   15.6956  -24.7518 C   0  0  0  0  0  3  0  0  0  0  0  0
  -13.2977   14.3942  -24.1405 C   0  0  0  0  0  0  0  0  0  0  0  0
  -11.8542   14.5807  -23.7912 C   0  0  0  0  0  0  0  0  0  0  0  0
  -11.3228   13.1601  -24.0143 C   0  0  0  0  0  0  0  0  0  0  0  0
  -12.1842   12.7900  -25.2311 C   0  0  0  0  0  0  0  0  0  0  0  0
  -13.4189   13.3279  -24.9849 O   0  0  0  0  0  0  0  0  0  0  0  0
  -12.1909   11.3765  -25.4594 N   0  0  0  0  0  0  0  0  0  0  0  0
  -13.2532   10.5342  -25.4698 C   0  0  0  0  0  0  0  0  0  0  0  0
  -12.7934    9.2968  -25.7250 N   0  0  0  0  0  0  0  0  0  0  0  0
  -11.4548    9.3304  -25.8785 C   0  0  0  0  0  0  0  0  0  0  0  0
  -11.1000   10.6459  -25.7074 C   0  0  0  0  0  0  0  0  0  0  0  0
   -9.7805   10.9484  -25.8150 N   0  0  0  0  0  0  0  0  0  0  0  0
   -8.8403   10.0483  -26.0726 C   0  0  0  0  0  0  0  0  0  0  0  0
   -9.1906    8.7535  -26.2409 N   0  0  0  0  0  0  0  0  0  0  0  0
  -10.4799    8.3881  -26.1470 C   0  0  0  0  0  0  0  0  0  0  0  0
  -10.8545    7.0082  -26.3262 N   0  0  0  0  0  0  0  0  0  0  0  0
  -11.6860   12.3072  -22.9922 O   0  0  0  0  0  0  0  0  0  0  0  0
  -11.6337   15.0218  -22.5082 O   0  0  0  0  0  0  0  0  0  0  0  0
  -13.4048   16.5055  -24.0971 H   0  0  0  0  0  0  0  0  0  0  0  0
  -14.8752   15.7096  -24.8834 H   0  0  0  0  0  0  0  0  0  0  0  0
  -13.8702   14.1886  -23.2060 H   0  0  0  0  0  0  0  0  0  0  0  0
  -11.3833   15.2103  -24.5737 H   0  0  0  0  0  0  0  0  0  0  0  0
  -10.2576   13.1475  -24.2438 H   0  0  0  0  0  0  0  0  0  0  0  0
  -11.7327   13.3631  -26.0854 H   0  0  0  0  0  0  0  0  0  0  0  0
  -14.2606   10.8820  -25.2938 H   0  0  0  0  0  0  0  0  0  0  0  0
   -7.8149   10.3814  -26.1404 H   0  0  0  0  0  0  0  0  0  0  0  0
  -10.1099    6.2907  -26.1828 H   0  0  0  0  0  0  0  0  0  0  0  0
  -11.8148    6.7243  -26.5856 H   0  0  0  0  0  0  0  0  0  0  0  0
  -12.6096   11.9486  -23.0933 H   0  0  0  0  0  0  0  0  0  0  0  0
  -10.9873   15.7897  -22.5742 H   0  0  0  0  0  0  0  0  0  0  0  0
  1  2  1  0
  2  3  1  0
  3  4  1  0
  4  5  1  0
  5  6  1  0
  5  7  1  0
  7  8  1  0
  8  9  2  0
  9 10  1  0
 10 11  2  0
 11 12  1  0
 12 13  2  0
 13 14  1  0
 14 15  2  0
 15 16  1  0
  4 17  1  0
  3 18  1  0
  6  2  1  0
 11  7  1  0
 15 10  1  0
  1 19  1  0
  1 20  1  0
  2 21  1  0
  3 22  1  0
  4 23  1  0
  5 24  1  0
  8 25  1  0
 13 26  1  0
 16 27  1  0
 16 28  1  0
 17 29  1  0
 18 30  1  0
M  RAD  1   1   2
M  END
$$$$

     RDKit          3D

 30 32  0  0  0  0  0  0  0  0999 V2000
  -14.3650   14.2821  -23.0496 C   0  0  0  0  0  3  0  0  0  0  0  0
  -13.2326   14.4453  -24.0305 C   0  0  0  0  0  0  0  0  0  0  0  0
  -11.8824   14.3573  -23.3927 C   0  0  0  0  0  0  0  0  0  0  0  0
  -11.2964   13.1136  -24.0694 C   0  0  0  0  0  0  0  0  0  0  0  0
  -12.6082   12.3994  -24.4134 C   0  0  0  0  0  0  0  0  0  0  0  0
  -13.3232   13.4366  -24.9795 O   0  0  0  0  0  0  0  0  0  0  0  0
  -12.4091   11.2772  -25.2693 N   0  0  0  0  0  0  0  0  0  0  0  0
  -13.2159   10.7688  -26.2137 C   0  0  0  0  0  0  0  0  0  0  0  0
  -12.6280    9.7006  -26.7811 N   0  0  0  0  0  0  0  0  0  0  0  0
  -11.4343    9.5002  -26.2152 C   0  0  0  0  0  0  0  0  0  0  0  0
  -11.3090   10.5079  -25.2580 C   0  0  0  0  0  0  0  0  0  0  0  0
  -10.1662   10.5016  -24.5544 N   0  0  0  0  0  0  0  0  0  0  0  0
   -9.1815    9.6177  -24.7147 C   0  0  0  0  0  0  0  0  0  0  0  0
   -9.3321    8.6552  -25.6482 N   0  0  0  0  0  0  0  0  0  0  0  0
  -10.4350    8.5756  -26.4021 C   0  0  0  0  0  0  0  0  0  0  0  0
  -10.5249    7.5392  -27.3624 N   0  0  0  0  0  0  0  0  0  0  0  0
  -10.7024   13.4640  -25.2732 O   0  0  0  0  0  0  0  0  0  0  0  0
  -11.0808   15.4659  -23.6288 O   0  0  0  0  0  0  0  0  0  0  0  0
  -15.0128   13.4145  -23.2765 H   0  0  0  0  0  0  0  0  0  0  0  0
  -14.0210   14.3060  -21.9963 H   0  0  0  0  0  0  0  0  0  0  0  0
  -13.3218   15.4450  -24.5153 H   0  0  0  0  0  0  0  0  0  0  0  0
  -11.9083   14.1343  -22.3082 H   0  0  0  0  0  0  0  0  0  0  0  0
  -10.6651   12.5306  -23.4026 H   0  0  0  0  0  0  0  0  0  0  0  0
  -13.0651   12.1392  -23.4327 H   0  0  0  0  0  0  0  0  0  0  0  0
  -14.1872   11.1604  -26.4747 H   0  0  0  0  0  0  0  0  0  0  0  0
   -8.2844    9.6870  -24.0976 H   0  0  0  0  0  0  0  0  0  0  0  0
  -10.3137    7.7351  -28.3638 H   0  0  0  0  0  0  0  0  0  0  0  0
  -10.8019    6.5633  -27.0951 H   0  0  0  0  0  0  0  0  0  0  0  0
  -10.1926   14.3110  -25.2300 H   0  0  0  0  0  0  0  0  0  0  0  0
  -11.2983   16.1289  -22.9214 H   0  0  0  0  0  0  0  0  0  0  0  0
  1  2  1  0
  2  3  1  0
  3  4  1  0
  4  5  1  0
  5  6  1  0
  5  7  1  0
  7  8  1  0
  8  9  2  0
  9 10  1  0
 10 11  2  0
 11 12  1  0
 12 13  2  0
 13 14  1  0
 14 15  2  0
 15 16  1  0
  4 17  1  0
  3 18  1  0
  6  2  1  0
 11  7  1  0
 15 10  1  0
  1 19  1  0
  1 20  1  0
  2 21  1  0
  3 22  1  0
  4 23  1  0
  5 24  1  0
  8 25  1  0
 13 26  1  0
 16 27  1  0
 16 28  1  0
 17 29  1  0
 18 30  1  0
M  RAD  1   1   2
M  END
$$$$

     RDKit          3D

 30 32  0  0  0  0  0  0  0  0999 V2000
  -13.6139   15.1804  -25.5884 C   0  0  0  0  0  3  0  0  0  0  0  0
  -13.4059   14.4266  -24.2944 C   0  0  0  0  0  0  0  0  0  0  0  0
  -11.9759   14.6474  -23.8471 C   0  0  0  0  0  0  0  0  0  0  0  0
  -11.3144   13.4438  -24.5372 C   0  0  0  0  0  0  0  0  0  0  0  0
  -12.3986   12.4317  -24.1761 C   0  0  0  0  0  0  0  0  0  0  0  0
  -13.5987   13.0786  -24.4373 O   0  0  0  0  0  0  0  0  0  0  0  0
  -12.2765   11.2066  -24.8909 N   0  0  0  0  0  0  0  0  0  0  0  0
  -13.3283   10.4769  -25.2966 C   0  0  0  0  0  0  0  0  0  0  0  0
  -12.8949    9.3896  -25.9367 N   0  0  0  0  0  0  0  0  0  0  0  0
  -11.5467    9.4241  -25.9407 C   0  0  0  0  0  0  0  0  0  0  0  0
  -11.1597   10.5711  -25.2805 C   0  0  0  0  0  0  0  0  0  0  0  0
   -9.8288   10.8451  -25.1449 N   0  0  0  0  0  0  0  0  0  0  0  0
   -8.8981   10.0152  -25.6442 C   0  0  0  0  0  0  0  0  0  0  0  0
   -9.2772    8.8937  -26.2898 N   0  0  0  0  0  0  0  0  0  0  0  0
  -10.5694    8.5749  -26.4522 C   0  0  0  0  0  0  0  0  0  0  0  0
  -10.9850    7.3965  -27.1302 N   0  0  0  0  0  0  0  0  0  0  0  0
  -10.1366   13.2043  -23.8820 O   0  0  0  0  0  0  0  0  0  0  0  0
  -11.9184   14.4014  -22.4866 O   0  0  0  0  0  0  0  0  0  0  0  0
  -13.1606   16.1884  -25.5230 H   0  0  0  0  0  0  0  0  0  0  0  0
  -13.3095   14.6227  -26.4765 H   0  0  0  0  0  0  0  0  0  0  0  0
  -14.1187   14.8526  -23.5542 H   0  0  0  0  0  0  0  0  0  0  0  0
  -11.5549   15.5905  -24.1610 H   0  0  0  0  0  0  0  0  0  0  0  0
  -11.2101   13.5896  -25.6098 H   0  0  0  0  0  0  0  0  0  0  0  0
  -12.2688   12.2768  -23.0643 H   0  0  0  0  0  0  0  0  0  0  0  0
  -14.3905   10.6804  -25.1593 H   0  0  0  0  0  0  0  0  0  0  0  0
   -7.8322   10.1924  -25.5602 H   0  0  0  0  0  0  0  0  0  0  0  0
  -11.5888    6.7080  -26.6254 H   0  0  0  0  0  0  0  0  0  0  0  0
  -10.7157    7.1810  -28.1158 H   0  0  0  0  0  0  0  0  0  0  0  0
   -9.4216   13.7168  -24.3394 H   0  0  0  0  0  0  0  0  0  0  0  0
  -12.4131   15.0938  -21.9798 H   0  0  0  0  0  0  0  0  0  0  0  0
  1  2  1  0
  2  3  1  0
  3  4  1  0
  4  5  1  0
  5  6  1  0
  5  7  1  0
  7  8  1  0
  8  9  2  0
  9 10  1  0
 10 11  2  0
 11 12  1  0
 12 13  2  0
 13 14  1  0
 14 15  2  0
 15 16  1  0
  4 17  1  0
  3 18  1  0
  6  2  1  0
 11  7  1  0
 15 10  1  0
  1 19  1  0
  1 20  1  0
  2 21  1  0
  3 22  1  0
  4 23  1  0
  5 24  1  0
  8 25  1  0
 13 26  1  0
 16 27  1  0
 16 28  1  0
 17 29  1  0
 18 30  1  0
M  RAD  1   1   2
M  END
$$$$

     RDKit          3D

 30 32  0  0  0  0  0  0  0  0999 V2000
  -12.8937   13.7914  -21.7346 C   0  0  0  0  0  3  0  0  0  0  0  0
  -13.0851   13.5935  -23.2197 C   0  0  0  0  0  0  0  0  0  0  0  0
  -12.5499   14.7361  -24.0305 C   0  0  0  0  0  0  0  0  0  0  0  0
  -12.1345   13.9885  -25.2992 C   0  0  0  0  0  0  0  0  0  0  0  0
  -11.5740   12.7337  -24.6285 C   0  0  0  0  0  0  0  0  0  0  0  0
  -12.4389   12.4441  -23.6032 O   0  0  0  0  0  0  0  0  0  0  0  0
  -11.3689   11.6749  -25.5640 N   0  0  0  0  0  0  0  0  0  0  0  0
  -11.3799   11.7900  -26.8892 C   0  0  0  0  0  0  0  0  0  0  0  0
  -11.1461   10.5591  -27.3799 N   0  0  0  0  0  0  0  0  0  0  0  0
  -10.9877    9.6689  -26.3822 C   0  0  0  0  0  0  0  0  0  0  0  0
  -11.1337   10.4014  -25.2139 C   0  0  0  0  0  0  0  0  0  0  0  0
  -11.0212    9.7493  -24.0432 N   0  0  0  0  0  0  0  0  0  0  0  0
  -10.7731    8.4180  -23.9707 C   0  0  0  0  0  0  0  0  0  0  0  0
  -10.6395    7.7513  -25.1179 N   0  0  0  0  0  0  0  0  0  0  0  0
  -10.7346    8.3118  -26.3290 C   0  0  0  0  0  0  0  0  0  0  0  0
  -10.5951    7.6167  -27.5449 N   0  0  0  0  0  0  0  0  0  0  0  0
  -11.1769   14.6667  -26.0072 O   0  0  0  0  0  0  0  0  0  0  0  0
  -13.4943   15.7126  -24.2982 O   0  0  0  0  0  0  0  0  0  0  0  0
  -13.2187   14.7695  -21.3723 H   0  0  0  0  0  0  0  0  0  0  0  0
  -11.8833   13.4929  -21.3956 H   0  0  0  0  0  0  0  0  0  0  0  0
  -14.1768   13.5087  -23.4192 H   0  0  0  0  0  0  0  0  0  0  0  0
  -11.6474   15.2114  -23.5518 H   0  0  0  0  0  0  0  0  0  0  0  0
  -13.0491   13.7570  -25.8678 H   0  0  0  0  0  0  0  0  0  0  0  0
  -10.5866   13.0342  -24.2143 H   0  0  0  0  0  0  0  0  0  0  0  0
  -11.5391   12.6688  -27.5108 H   0  0  0  0  0  0  0  0  0  0  0  0
  -10.6962    7.9648  -22.9886 H   0  0  0  0  0  0  0  0  0  0  0  0
  -11.3968    7.1104  -27.9535 H   0  0  0  0  0  0  0  0  0  0  0  0
   -9.6894    7.6061  -28.0407 H   0  0  0  0  0  0  0  0  0  0  0  0
  -11.3049   15.6495  -25.8969 H   0  0  0  0  0  0  0  0  0  0  0  0
  -13.0427   16.4043  -24.8452 H   0  0  0  0  0  0  0  0  0  0  0  0
  1  2  1  0
  2  3  1  0
  3  4  1  0
  4  5  1  0
  5  6  1  0
  5  7  1  0
  7  8  1  0
  8  9  2  0
  9 10  1  0
 10 11  2  0
 11 12  1  0
 12 13  2  0
 13 14  1  0
 14 15  2  0
 15 16  1  0
  4 17  1  0
  3 18  1  0
  6  2  1  0
 11  7  1  0
 15 10  1  0
  1 19  1  0
  1 20  1  0
  2 21  1  0
  3 22  1  0
  4 23  1  0
  5 24  1  0
  8 25  1  0
 13 26  1  0
 16 27  1  0
 16 28  1  0
 17 29  1  0
 18 30  1  0
M  RAD  1   1   2
M  END
$$$$

     RDKit          3D

 30 32  0  0  0  0  0  0  0  0999 V2000
  -10.8394   15.3719  -23.2216 C   0  0  0  0  0  3  0  0  0  0  0  0
  -11.8320   14.2436  -23.2539 C   0  0  0  0  0  0  0  0  0  0  0  0
  -12.9134   14.6035  -24.2812 C   0  0  0  0  0  0  0  0  0  0  0  0
  -13.5367   13.2167  -24.4868 C   0  0  0  0  0  0  0  0  0  0  0  0
  -12.3887   12.3181  -24.2176 C   0  0  0  0  0  0  0  0  0  0  0  0
  -11.2996   13.0959  -23.8372 O   0  0  0  0  0  0  0  0  0  0  0  0
  -12.0579   11.4188  -25.2859 N   0  0  0  0  0  0  0  0  0  0  0  0
  -12.4664   11.4224  -26.5508 C   0  0  0  0  0  0  0  0  0  0  0  0
  -11.9081   10.3941  -27.2115 N   0  0  0  0  0  0  0  0  0  0  0  0
  -11.1302    9.7191  -26.3631 C   0  0  0  0  0  0  0  0  0  0  0  0
  -11.2294   10.3707  -25.1507 C   0  0  0  0  0  0  0  0  0  0  0  0
  -10.5074    9.8452  -24.1277 N   0  0  0  0  0  0  0  0  0  0  0  0
   -9.7395    8.7365  -24.3229 C   0  0  0  0  0  0  0  0  0  0  0  0
   -9.6647    8.1245  -25.5184 N   0  0  0  0  0  0  0  0  0  0  0  0
  -10.3614    8.6045  -26.5692 C   0  0  0  0  0  0  0  0  0  0  0  0
  -10.3212    8.0022  -27.8499 N   0  0  0  0  0  0  0  0  0  0  0  0
  -14.5567   13.1266  -23.5231 O   0  0  0  0  0  0  0  0  0  0  0  0
  -12.3741   14.9935  -25.4847 O   0  0  0  0  0  0  0  0  0  0  0  0
   -9.8177   15.0218  -23.3947 H   0  0  0  0  0  0  0  0  0  0  0  0
  -10.9518   15.9861  -22.3107 H   0  0  0  0  0  0  0  0  0  0  0  0
  -12.3314   14.0549  -22.3042 H   0  0  0  0  0  0  0  0  0  0  0  0
  -13.6319   15.3258  -23.8921 H   0  0  0  0  0  0  0  0  0  0  0  0
  -13.9402   13.2056  -25.4921 H   0  0  0  0  0  0  0  0  0  0  0  0
  -12.6480   11.7008  -23.3075 H   0  0  0  0  0  0  0  0  0  0  0  0
  -13.1389   12.1187  -27.0210 H   0  0  0  0  0  0  0  0  0  0  0  0
   -9.1569    8.3023  -23.5208 H   0  0  0  0  0  0  0  0  0  0  0  0
  -10.9031    7.1811  -28.1289 H   0  0  0  0  0  0  0  0  0  0  0  0
   -9.6781    8.3829  -28.5802 H   0  0  0  0  0  0  0  0  0  0  0  0
  -14.2597   12.4538  -22.8664 H   0  0  0  0  0  0  0  0  0  0  0  0
  -12.5376   14.3422  -26.2291 H   0  0  0  0  0  0  0  0  0  0  0  0
  1  2  1  0
  2  3  1  0
  3  4  1  0
  4  5  1  0
  5  6  1  0
  5  7  1  0
  7  8  1  0
  8  9  2  0
  9 10  1  0
 10 11  2  0
 11 12  1  0
 12 13  2  0
 13 14  1  0
 14 15  2  0
 15 16  1  0
  4 17  1  0
  3 18  1  0
  6  2  1  0
 11  7  1  0
 15 10  1  0
  1 19  1  0
  1 20  1  0
  2 21  1  0
  3 22  1  0
  4 23  1  0
  5 24  1  0
  8 25  1  0
 13 26  1  0
 16 27  1  0
 16 28  1  0
 17 29  1  0
 18 30  1  0
M  RAD  1   1   2
M  END
$$$$

     RDKit          3D

 30 32  0  0  0  0  0  0  0  0999 V2000
  -14.2915   14.8353  -23.0559 C   0  0  0  0  0  3  0  0  0  0  0  0
  -13.3288   14.3584  -24.1103 C   0  0  0  0  0  0  0  0  0  0  0  0
  -11.8976   14.5066  -23.6348 C   0  0  0  0  0  0  0  0  0  0  0  0
  -11.2706   13.2353  -24.1992 C   0  0  0  0  0  0  0  0  0  0  0  0
  -12.3098   12.7730  -25.1376 C   0  0  0  0  0  0  0  0  0  0  0  0
  -13.5031   13.0118  -24.4286 O   0  0  0  0  0  0  0  0  0  0  0  0
  -12.2007   11.4396  -25.6165 N   0  0  0  0  0  0  0  0  0  0  0  0
  -13.2091   10.7516  -26.1862 C   0  0  0  0  0  0  0  0  0  0  0  0
  -12.7532    9.5250  -26.5190 N   0  0  0  0  0  0  0  0  0  0  0  0
  -11.4619    9.4129  -26.1709 C   0  0  0  0  0  0  0  0  0  0  0  0
  -11.1400   10.6391  -25.6025 C   0  0  0  0  0  0  0  0  0  0  0  0
   -9.9026   10.8441  -25.1490 N   0  0  0  0  0  0  0  0  0  0  0  0
   -8.9424    9.8994  -25.2208 C   0  0  0  0  0  0  0  0  0  0  0  0
   -9.2740    8.7181  -25.7748 N   0  0  0  0  0  0  0  0  0  0  0  0
  -10.4895    8.4370  -26.2509 C   0  0  0  0  0  0  0  0  0  0  0  0
  -10.8414    7.1927  -26.8353 N   0  0  0  0  0  0  0  0  0  0  0  0
  -11.0114   12.4137  -23.1384 O   0  0  0  0  0  0  0  0  0  0  0  0
  -11.2994   15.6145  -24.2253 O   0  0  0  0  0  0  0  0  0  0  0  0
  -15.3197   14.5318  -23.3369 H   0  0  0  0  0  0  0  0  0  0  0  0
  -13.9999   14.5122  -22.0501 H   0  0  0  0  0  0  0  0  0  0  0  0
  -13.4241   14.9489  -25.0382 H   0  0  0  0  0  0  0  0  0  0  0  0
  -11.8984   14.5270  -22.5428 H   0  0  0  0  0  0  0  0  0  0  0  0
  -10.3035   13.4913  -24.6810 H   0  0  0  0  0  0  0  0  0  0  0  0
  -12.3429   13.4677  -26.0031 H   0  0  0  0  0  0  0  0  0  0  0  0
  -14.2413   11.0810  -26.3724 H   0  0  0  0  0  0  0  0  0  0  0  0
   -7.9329   10.1043  -24.8363 H   0  0  0  0  0  0  0  0  0  0  0  0
  -11.1133    7.1396  -27.8277 H   0  0  0  0  0  0  0  0  0  0  0  0
  -10.8079    6.3566  -26.2112 H   0  0  0  0  0  0  0  0  0  0  0  0
  -11.7967   11.9873  -22.7278 H   0  0  0  0  0  0  0  0  0  0  0  0
  -11.7647   15.7238  -25.1153 H   0  0  0  0  0  0  0  0  0  0  0  0
  1  2  1  0
  2  3  1  0
  3  4  1  0
  4  5  1  0
  5  6  1  0
  5  7  1  0
  7  8  1  0
  8  9  2  0
  9 10  1  0
 10 11  2  0
 11 12  1  0
 12 13  2  0
 13 14  1  0
 14 15  2  0
 15 16  1  0
  4 17  1  0
  3 18  1  0
  6  2  1  0
 11  7  1  0
 15 10  1  0
  1 19  1  0
  1 20  1  0
  2 21  1  0
  3 22  1  0
  4 23  1  0
  5 24  1  0
  8 25  1  0
 13 26  1  0
 16 27  1  0
 16 28  1  0
 17 29  1  0
 18 30  1  0
M  RAD  1   1   2
M  END
$$$$

     RDKit          3D

 30 32  0  0  0  0  0  0  0  0999 V2000
  -14.4262   14.7200  -23.6144 C   0  0  0  0  0  3  0  0  0  0  0  0
  -13.2215   14.5180  -24.5125 C   0  0  0  0  0  0  0  0  0  0  0  0
  -11.9303   14.5422  -23.7567 C   0  0  0  0  0  0  0  0  0  0  0  0
  -11.3133   13.1950  -24.1635 C   0  0  0  0  0  0  0  0  0  0  0  0
  -12.5824   12.3806  -24.3518 C   0  0  0  0  0  0  0  0  0  0  0  0
  -13.3527   13.2838  -25.1112 O   0  0  0  0  0  0  0  0  0  0  0  0
  -12.3603   11.1636  -25.0589 N   0  0  0  0  0  0  0  0  0  0  0  0
  -13.3503   10.4135  -25.5740 C   0  0  0  0  0  0  0  0  0  0  0  0
  -12.8220    9.3436  -26.1722 N   0  0  0  0  0  0  0  0  0  0  0  0
  -11.4968    9.4038  -26.0433 C   0  0  0  0  0  0  0  0  0  0  0  0
  -11.1948   10.5466  -25.3434 C   0  0  0  0  0  0  0  0  0  0  0  0
   -9.9277   10.8621  -25.0670 N   0  0  0  0  0  0  0  0  0  0  0  0
   -8.9361   10.0559  -25.4761 C   0  0  0  0  0  0  0  0  0  0  0  0
   -9.2379    8.9502  -26.1538 N   0  0  0  0  0  0  0  0  0  0  0  0
  -10.4781    8.5757  -26.4634 C   0  0  0  0  0  0  0  0  0  0  0  0
  -10.8249    7.4067  -27.1820 N   0  0  0  0  0  0  0  0  0  0  0  0
  -10.5662   12.6484  -23.1359 O   0  0  0  0  0  0  0  0  0  0  0  0
  -11.1055   15.5985  -24.0760 O   0  0  0  0  0  0  0  0  0  0  0  0
  -15.2217   13.9451  -23.8212 H   0  0  0  0  0  0  0  0  0  0  0  0
  -14.9213   15.6892  -23.9120 H   0  0  0  0  0  0  0  0  0  0  0  0
  -13.2092   15.2872  -25.3232 H   0  0  0  0  0  0  0  0  0  0  0  0
  -12.0868   14.4490  -22.6417 H   0  0  0  0  0  0  0  0  0  0  0  0
  -10.7336   13.2987  -25.0986 H   0  0  0  0  0  0  0  0  0  0  0  0
  -13.0304   12.2512  -23.3472 H   0  0  0  0  0  0  0  0  0  0  0  0
  -14.4267   10.6070  -25.5347 H   0  0  0  0  0  0  0  0  0  0  0  0
   -7.8986   10.3301  -25.2403 H   0  0  0  0  0  0  0  0  0  0  0  0
  -11.2463    6.5947  -26.6900 H   0  0  0  0  0  0  0  0  0  0  0  0
  -10.6694    7.3331  -28.2008 H   0  0  0  0  0  0  0  0  0  0  0  0
   -9.7198   13.1083  -23.0041 H   0  0  0  0  0  0  0  0  0  0  0  0
  -11.0709   16.2003  -23.2656 H   0  0  0  0  0  0  0  0  0  0  0  0
  1  2  1  0
  2  3  1  0
  3  4  1  0
  4  5  1  0
  5  6  1  0
  5  7  1  0
  7  8  1  0
  8  9  2  0
  9 10  1  0
 10 11  2  0
 11 12  1  0
 12 13  2  0
 13 14  1  0
 14 15  2  0
 15 16  1  0
  4 17  1  0
  3 18  1  0
  6  2  1  0
 11  7  1  0
 15 10  1  0
  1 19  1  0
  1 20  1  0
  2 21  1  0
  3 22  1  0
  4 23  1  0
  5 24  1  0
  8 25  1  0
 13 26  1  0
 16 27  1  0
 16 28  1  0
 17 29  1  0
 18 30  1  0
M  RAD  1   1   2
M  END
$$$$

     RDKit          3D

 30 32  0  0  0  0  0  0  0  0999 V2000
  -13.8878   13.9165  -22.2758 C   0  0  0  0  0  3  0  0  0  0  0  0
  -12.5788   13.8407  -23.0241 C   0  0  0  0  0  0  0  0  0  0  0  0
  -12.4440   14.8863  -24.0799 C   0  0  0  0  0  0  0  0  0  0  0  0
  -12.2121   14.0298  -25.3334 C   0  0  0  0  0  0  0  0  0  0  0  0
  -11.6311   12.7898  -24.6877 C   0  0  0  0  0  0  0  0  0  0  0  0
  -12.5135   12.5986  -23.6283 O   0  0  0  0  0  0  0  0  0  0  0  0
  -11.5256   11.6851  -25.5707 N   0  0  0  0  0  0  0  0  0  0  0  0
  -11.8965   11.6435  -26.8523 C   0  0  0  0  0  0  0  0  0  0  0  0
  -11.6274   10.4076  -27.3369 N   0  0  0  0  0  0  0  0  0  0  0  0
  -11.0839    9.6508  -26.3723 C   0  0  0  0  0  0  0  0  0  0  0  0
  -11.0252   10.4813  -25.2486 C   0  0  0  0  0  0  0  0  0  0  0  0
  -10.5050    9.9325  -24.1293 N   0  0  0  0  0  0  0  0  0  0  0  0
  -10.0563    8.6689  -24.0465 C   0  0  0  0  0  0  0  0  0  0  0  0
  -10.1239    7.8915  -25.1403 N   0  0  0  0  0  0  0  0  0  0  0  0
  -10.6307    8.3517  -26.3142 C   0  0  0  0  0  0  0  0  0  0  0  0
  -10.7038    7.5390  -27.4657 N   0  0  0  0  0  0  0  0  0  0  0  0
  -13.4589   13.7457  -25.8899 O   0  0  0  0  0  0  0  0  0  0  0  0
  -11.2227   15.5485  -23.8601 O   0  0  0  0  0  0  0  0  0  0  0  0
  -13.7930   14.2148  -21.2342 H   0  0  0  0  0  0  0  0  0  0  0  0
  -14.6586   14.4858  -22.8316 H   0  0  0  0  0  0  0  0  0  0  0  0
  -11.7575   13.8714  -22.2662 H   0  0  0  0  0  0  0  0  0  0  0  0
  -13.2878   15.5620  -24.1873 H   0  0  0  0  0  0  0  0  0  0  0  0
  -11.5152   14.4936  -26.0295 H   0  0  0  0  0  0  0  0  0  0  0  0
  -10.6590   13.0935  -24.2277 H   0  0  0  0  0  0  0  0  0  0  0  0
  -12.3364   12.4181  -27.4521 H   0  0  0  0  0  0  0  0  0  0  0  0
   -9.6398    8.2270  -23.1530 H   0  0  0  0  0  0  0  0  0  0  0  0
   -9.8514    7.3004  -27.9774 H   0  0  0  0  0  0  0  0  0  0  0  0
  -11.6237    7.1921  -27.7803 H   0  0  0  0  0  0  0  0  0  0  0  0
  -13.6543   14.3462  -26.6727 H   0  0  0  0  0  0  0  0  0  0  0  0
  -10.6453   15.0435  -23.2229 H   0  0  0  0  0  0  0  0  0  0  0  0
  1  2  1  0
  2  3  1  0
  3  4  1  0
  4  5  1  0
  5  6  1  0
  5  7  1  0
  7  8  1  0
  8  9  2  0
  9 10  1  0
 10 11  2  0
 11 12  1  0
 12 13  2  0
 13 14  1  0
 14 15  2  0
 15 16  1  0
  4 17  1  0
  3 18  1  0
  6  2  1  0
 11  7  1  0
 15 10  1  0
  1 19  1  0
  1 20  1  0
  2 21  1  0
  3 22  1  0
  4 23  1  0
  5 24  1  0
  8 25  1  0
 13 26  1  0
 16 27  1  0
 16 28  1  0
 17 29  1  0
 18 30  1  0
M  RAD  1   1   2
M  END
$$$$

     RDKit          3D

 30 32  0  0  0  0  0  0  0  0999 V2000
  -14.2447   14.5444  -23.4619 C   0  0  0  0  0  3  0  0  0  0  0  0
  -13.1766   14.5811  -24.5526 C   0  0  0  0  0  0  0  0  0  0  0  0
  -11.8138   14.6404  -23.9179 C   0  0  0  0  0  0  0  0  0  0  0  0
  -11.2902   13.2055  -24.0528 C   0  0  0  0  0  0  0  0  0  0  0  0
  -12.5142   12.4613  -24.4326 C   0  0  0  0  0  0  0  0  0  0  0  0
  -13.2109   13.3798  -25.2515 O   0  0  0  0  0  0  0  0  0  0  0  0
  -12.3158   11.2722  -25.1844 N   0  0  0  0  0  0  0  0  0  0  0  0
  -13.2868   10.7224  -25.9717 C   0  0  0  0  0  0  0  0  0  0  0  0
  -12.7608    9.6320  -26.5188 N   0  0  0  0  0  0  0  0  0  0  0  0
  -11.4841    9.4655  -26.1072 C   0  0  0  0  0  0  0  0  0  0  0  0
  -11.2119   10.5102  -25.2620 C   0  0  0  0  0  0  0  0  0  0  0  0
  -10.0037   10.5924  -24.7044 N   0  0  0  0  0  0  0  0  0  0  0  0
   -9.0254    9.6929  -24.9304 C   0  0  0  0  0  0  0  0  0  0  0  0
   -9.2948    8.6747  -25.7559 N   0  0  0  0  0  0  0  0  0  0  0  0
  -10.4979    8.5347  -26.3519 C   0  0  0  0  0  0  0  0  0  0  0  0
  -10.8067    7.4628  -27.2314 N   0  0  0  0  0  0  0  0  0  0  0  0
  -10.3000   13.2358  -25.0095 O   0  0  0  0  0  0  0  0  0  0  0  0
  -11.8885   15.0000  -22.5590 O   0  0  0  0  0  0  0  0  0  0  0  0
  -13.7742   14.1577  -22.5488 H   0  0  0  0  0  0  0  0  0  0  0  0
  -15.0231   13.8038  -23.7732 H   0  0  0  0  0  0  0  0  0  0  0  0
  -13.3431   15.4178  -25.2584 H   0  0  0  0  0  0  0  0  0  0  0  0
  -11.1860   15.3577  -24.4567 H   0  0  0  0  0  0  0  0  0  0  0  0
  -10.8475   12.9287  -23.0923 H   0  0  0  0  0  0  0  0  0  0  0  0
  -13.1256   12.2999  -23.5193 H   0  0  0  0  0  0  0  0  0  0  0  0
  -14.2860   11.1122  -26.1118 H   0  0  0  0  0  0  0  0  0  0  0  0
   -8.0395    9.7635  -24.4729 H   0  0  0  0  0  0  0  0  0  0  0  0
  -10.4730    7.4787  -28.2120 H   0  0  0  0  0  0  0  0  0  0  0  0
  -11.3687    6.6419  -26.9219 H   0  0  0  0  0  0  0  0  0  0  0  0
  -10.5379   13.7218  -25.8317 H   0  0  0  0  0  0  0  0  0  0  0  0
  -12.0956   15.9721  -22.5589 H   0  0  0  0  0  0  0  0  0  0  0  0
  1  2  1  0
  2  3  1  0
  3  4  1  0
  4  5  1  0
  5  6  1  0
  5  7  1  0
  7  8  1  0
  8  9  2  0
  9 10  1  0
 10 11  2  0
 11 12  1  0
 12 13  2  0
 13 14  1  0
 14 15  2  0
 15 16  1  0
  4 17  1  0
  3 18  1  0
  6  2  1  0
 11  7  1  0
 15 10  1  0
  1 19  1  0
  1 20  1  0
  2 21  1  0
  3 22  1  0
  4 23  1  0
  5 24  1  0
  8 25  1  0
 13 26  1  0
 16 27  1  0
 16 28  1  0
 17 29  1  0
 18 30  1  0
M  RAD  1   1   2
M  END
$$$$

     RDKit          3D

 30 32  0  0  0  0  0  0  0  0999 V2000
  -12.6650   13.5617  -21.7867 C   0  0  0  0  0  3  0  0  0  0  0  0
  -11.8899   13.9316  -23.0462 C   0  0  0  0  0  0  0  0  0  0  0  0
  -12.7730   14.5652  -24.0747 C   0  0  0  0  0  0  0  0  0  0  0  0
  -12.6062   13.6157  -25.2657 C   0  0  0  0  0  0  0  0  0  0  0  0
  -11.2468   13.0414  -24.9606 C   0  0  0  0  0  0  0  0  0  0  0  0
  -11.3420   12.7910  -23.5946 O   0  0  0  0  0  0  0  0  0  0  0  0
  -10.9760   11.8703  -25.7240 N   0  0  0  0  0  0  0  0  0  0  0  0
  -10.4839   11.8040  -26.9685 C   0  0  0  0  0  0  0  0  0  0  0  0
  -10.3719   10.4948  -27.3413 N   0  0  0  0  0  0  0  0  0  0  0  0
  -10.7925    9.7306  -26.3341 C   0  0  0  0  0  0  0  0  0  0  0  0
  -11.1710   10.6063  -25.3200 C   0  0  0  0  0  0  0  0  0  0  0  0
  -11.6378   10.0545  -24.1819 N   0  0  0  0  0  0  0  0  0  0  0  0
  -11.7355    8.7259  -24.0275 C   0  0  0  0  0  0  0  0  0  0  0  0
  -11.3635    7.8964  -25.0223 N   0  0  0  0  0  0  0  0  0  0  0  0
  -10.8863    8.3538  -26.1931 C   0  0  0  0  0  0  0  0  0  0  0  0
  -10.4831    7.5326  -27.2657 N   0  0  0  0  0  0  0  0  0  0  0  0
  -12.6134   14.3472  -26.4625 O   0  0  0  0  0  0  0  0  0  0  0  0
  -14.0892   14.6850  -23.6867 O   0  0  0  0  0  0  0  0  0  0  0  0
  -13.2385   14.4007  -21.3940 H   0  0  0  0  0  0  0  0  0  0  0  0
  -13.2085   12.6185  -21.8962 H   0  0  0  0  0  0  0  0  0  0  0  0
  -11.0257   14.5981  -22.7565 H   0  0  0  0  0  0  0  0  0  0  0  0
  -12.3154   15.5445  -24.3834 H   0  0  0  0  0  0  0  0  0  0  0  0
  -13.4208   12.8774  -25.2140 H   0  0  0  0  0  0  0  0  0  0  0  0
  -10.5100   13.8641  -25.1311 H   0  0  0  0  0  0  0  0  0  0  0  0
  -10.1958   12.6014  -27.6394 H   0  0  0  0  0  0  0  0  0  0  0  0
  -12.1234    8.3715  -23.0746 H   0  0  0  0  0  0  0  0  0  0  0  0
  -10.9521    6.6289  -27.4254 H   0  0  0  0  0  0  0  0  0  0  0  0
   -9.7209    7.8323  -27.8913 H   0  0  0  0  0  0  0  0  0  0  0  0
  -12.7107   13.7083  -27.2063 H   0  0  0  0  0  0  0  0  0  0  0  0
  -14.3506   15.6464  -23.8426 H   0  0  0  0  0  0  0  0  0  0  0  0
  1  2  1  0
  2  3  1  0
  3  4  1  0
  4  5  1  0
  5  6  1  0
  5  7  1  0
  7  8  1  0
  8  9  2  0
  9 10  1  0
 10 11  2  0
 11 12  1  0
 12 13  2  0
 13 14  1  0
 14 15  2  0
 15 16  1  0
  4 17  1  0
  3 18  1  0
  6  2  1  0
 11  7  1  0
 15 10  1  0
  1 19  1  0
  1 20  1  0
  2 21  1  0
  3 22  1  0
  4 23  1  0
  5 24  1  0
  8 25  1  0
 13 26  1  0
 16 27  1  0
 16 28  1  0
 17 29  1  0
 18 30  1  0
M  RAD  1   1   2
M  END
$$$$

     RDKit          3D

 30 32  0  0  0  0  0  0  0  0999 V2000
  -13.3226   15.6766  -25.1902 C   0  0  0  0  0  3  0  0  0  0  0  0
  -12.3445   14.6126  -24.7469 C   0  0  0  0  0  0  0  0  0  0  0  0
  -12.5542   14.2352  -23.2934 C   0  0  0  0  0  0  0  0  0  0  0  0
  -12.1551   12.7649  -23.3724 C   0  0  0  0  0  0  0  0  0  0  0  0
  -12.8184   12.4254  -24.6842 C   0  0  0  0  0  0  0  0  0  0  0  0
  -12.4014   13.4716  -25.4951 O   0  0  0  0  0  0  0  0  0  0  0  0
  -12.5196   11.1391  -25.1918 N   0  0  0  0  0  0  0  0  0  0  0  0
  -13.4279   10.1866  -25.4767 C   0  0  0  0  0  0  0  0  0  0  0  0
  -12.8485    9.0847  -25.9376 N   0  0  0  0  0  0  0  0  0  0  0  0
  -11.5191    9.3171  -25.9572 C   0  0  0  0  0  0  0  0  0  0  0  0
  -11.3340   10.6009  -25.4895 C   0  0  0  0  0  0  0  0  0  0  0  0
  -10.1012   11.0737  -25.4110 N   0  0  0  0  0  0  0  0  0  0  0  0
   -9.0137   10.3697  -25.7632 C   0  0  0  0  0  0  0  0  0  0  0  0
   -9.2020    9.1135  -26.2202 N   0  0  0  0  0  0  0  0  0  0  0  0
  -10.4314    8.5800  -26.3219 C   0  0  0  0  0  0  0  0  0  0  0  0
  -10.6566    7.2559  -26.8015 N   0  0  0  0  0  0  0  0  0  0  0  0
  -10.7766   12.7497  -23.4354 O   0  0  0  0  0  0  0  0  0  0  0  0
  -11.7002   14.9507  -22.4677 O   0  0  0  0  0  0  0  0  0  0  0  0
  -14.2754   15.6504  -24.6544 H   0  0  0  0  0  0  0  0  0  0  0  0
  -12.8840   16.6975  -25.0878 H   0  0  0  0  0  0  0  0  0  0  0  0
  -11.3194   15.0759  -24.7985 H   0  0  0  0  0  0  0  0  0  0  0  0
  -13.6181   14.3331  -22.9959 H   0  0  0  0  0  0  0  0  0  0  0  0
  -12.5275   12.1860  -22.5318 H   0  0  0  0  0  0  0  0  0  0  0  0
  -13.9087   12.5640  -24.5246 H   0  0  0  0  0  0  0  0  0  0  0  0
  -14.5133   10.2915  -25.3499 H   0  0  0  0  0  0  0  0  0  0  0  0
   -8.0004   10.7490  -25.7022 H   0  0  0  0  0  0  0  0  0  0  0  0
  -11.1301    6.5900  -26.1448 H   0  0  0  0  0  0  0  0  0  0  0  0
  -10.3808    6.9284  -27.7460 H   0  0  0  0  0  0  0  0  0  0  0  0
  -10.3834   13.4619  -23.9707 H   0  0  0  0  0  0  0  0  0  0  0  0
  -11.7213   15.8977  -22.8078 H   0  0  0  0  0  0  0  0  0  0  0  0
  1  2  1  0
  2  3  1  0
  3  4  1  0
  4  5  1  0
  5  6  1  0
  5  7  1  0
  7  8  1  0
  8  9  2  0
  9 10  1  0
 10 11  2  0
 11 12  1  0
 12 13  2  0
 13 14  1  0
 14 15  2  0
 15 16  1  0
  4 17  1  0
  3 18  1  0
  6  2  1  0
 11  7  1  0
 15 10  1  0
  1 19  1  0
  1 20  1  0
  2 21  1  0
  3 22  1  0
  4 23  1  0
  5 24  1  0
  8 25  1  0
 13 26  1  0
 16 27  1  0
 16 28  1  0
 17 29  1  0
 18 30  1  0
M  RAD  1   1   2
M  END
$$$$

     RDKit          3D

 30 32  0  0  0  0  0  0  0  0999 V2000
  -12.7921   13.8867  -21.9072 C   0  0  0  0  0  3  0  0  0  0  0  0
  -13.3631   13.9244  -23.2947 C   0  0  0  0  0  0  0  0  0  0  0  0
  -12.4723   14.8498  -24.1122 C   0  0  0  0  0  0  0  0  0  0  0  0
  -11.3642   13.9016  -24.5225 C   0  0  0  0  0  0  0  0  0  0  0  0
  -11.8952   12.5344  -24.2317 C   0  0  0  0  0  0  0  0  0  0  0  0
  -13.2681   12.6947  -23.9418 O   0  0  0  0  0  0  0  0  0  0  0  0
  -11.6825   11.5811  -25.2825 N   0  0  0  0  0  0  0  0  0  0  0  0
  -11.9787   11.7492  -26.5846 C   0  0  0  0  0  0  0  0  0  0  0  0
  -11.6236   10.6229  -27.2294 N   0  0  0  0  0  0  0  0  0  0  0  0
  -11.1014    9.7412  -26.3308 C   0  0  0  0  0  0  0  0  0  0  0  0
  -11.1352   10.3431  -25.0897 C   0  0  0  0  0  0  0  0  0  0  0  0
  -10.6760    9.6887  -24.0109 N   0  0  0  0  0  0  0  0  0  0  0  0
  -10.1833    8.4463  -24.1414 C   0  0  0  0  0  0  0  0  0  0  0  0
  -10.1532    7.8670  -25.3499 N   0  0  0  0  0  0  0  0  0  0  0  0
  -10.5962    8.4695  -26.4598 C   0  0  0  0  0  0  0  0  0  0  0  0
  -10.5739    7.8742  -27.7512 N   0  0  0  0  0  0  0  0  0  0  0  0
  -11.0463   14.1393  -25.8261 O   0  0  0  0  0  0  0  0  0  0  0  0
  -13.2217   15.2938  -25.1895 O   0  0  0  0  0  0  0  0  0  0  0  0
  -13.3844   14.4542  -21.1693 H   0  0  0  0  0  0  0  0  0  0  0  0
  -11.7078   14.1009  -21.8700 H   0  0  0  0  0  0  0  0  0  0  0  0
  -14.4192   14.2449  -23.3003 H   0  0  0  0  0  0  0  0  0  0  0  0
  -12.1090   15.6664  -23.4682 H   0  0  0  0  0  0  0  0  0  0  0  0
  -10.4732   14.1575  -23.8880 H   0  0  0  0  0  0  0  0  0  0  0  0
  -11.4384   12.1932  -23.2792 H   0  0  0  0  0  0  0  0  0  0  0  0
  -12.4227   12.6501  -26.9879 H   0  0  0  0  0  0  0  0  0  0  0  0
   -9.7992    7.8672  -23.3148 H   0  0  0  0  0  0  0  0  0  0  0  0
  -11.2739    8.1348  -28.4799 H   0  0  0  0  0  0  0  0  0  0  0  0
   -9.8433    7.1606  -27.9796 H   0  0  0  0  0  0  0  0  0  0  0  0
  -11.6090   14.8575  -26.2466 H   0  0  0  0  0  0  0  0  0  0  0  0
  -13.7587   16.0645  -24.8683 H   0  0  0  0  0  0  0  0  0  0  0  0
  1  2  1  0
  2  3  1  0
  3  4  1  0
  4  5  1  0
  5  6  1  0
  5  7  1  0
  7  8  1  0
  8  9  2  0
  9 10  1  0
 10 11  2  0
 11 12  1  0
 12 13  2  0
 13 14  1  0
 14 15  2  0
 15 16  1  0
  4 17  1  0
  3 18  1  0
  6  2  1  0
 11  7  1  0
 15 10  1  0
  1 19  1  0
  1 20  1  0
  2 21  1  0
  3 22  1  0
  4 23  1  0
  5 24  1  0
  8 25  1  0
 13 26  1  0
 16 27  1  0
 16 28  1  0
 17 29  1  0
 18 30  1  0
M  RAD  1   1   2
M  END
$$$$

     RDKit          3D

 30 32  0  0  0  0  0  0  0  0999 V2000
  -14.1786   14.9269  -23.2079 C   0  0  0  0  0  3  0  0  0  0  0  0
  -13.5453   14.1001  -24.3278 C   0  0  0  0  0  0  0  0  0  0  0  0
  -12.1570   14.5217  -24.6439 C   0  0  0  0  0  0  0  0  0  0  0  0
  -11.3165   13.4115  -24.0710 C   0  0  0  0  0  0  0  0  0  0  0  0
  -12.2920   12.2900  -23.9384 C   0  0  0  0  0  0  0  0  0  0  0  0
  -13.5567   12.7952  -23.9365 O   0  0  0  0  0  0  0  0  0  0  0  0
  -12.1576   11.2795  -24.9465 N   0  0  0  0  0  0  0  0  0  0  0  0
  -13.0283   10.9912  -25.9344 C   0  0  0  0  0  0  0  0  0  0  0  0
  -12.5645    9.9857  -26.6834 N   0  0  0  0  0  0  0  0  0  0  0  0
  -11.3745    9.6155  -26.1742 C   0  0  0  0  0  0  0  0  0  0  0  0
  -11.1180   10.4377  -25.0720 C   0  0  0  0  0  0  0  0  0  0  0  0
   -9.9617   10.2172  -24.4241 N   0  0  0  0  0  0  0  0  0  0  0  0
   -9.0964    9.2565  -24.8146 C   0  0  0  0  0  0  0  0  0  0  0  0
   -9.3643    8.4740  -25.8818 N   0  0  0  0  0  0  0  0  0  0  0  0
  -10.5037    8.6435  -26.5729 C   0  0  0  0  0  0  0  0  0  0  0  0
  -10.8180    7.8373  -27.7019 N   0  0  0  0  0  0  0  0  0  0  0  0
  -10.2305   13.0994  -24.8811 O   0  0  0  0  0  0  0  0  0  0  0  0
  -11.8632   15.7252  -24.0436 O   0  0  0  0  0  0  0  0  0  0  0  0
  -14.5470   15.8876  -23.5643 H   0  0  0  0  0  0  0  0  0  0  0  0
  -13.5522   14.9613  -22.3164 H   0  0  0  0  0  0  0  0  0  0  0  0
  -14.2135   14.2792  -25.2212 H   0  0  0  0  0  0  0  0  0  0  0  0
  -11.9947   14.6465  -25.7482 H   0  0  0  0  0  0  0  0  0  0  0  0
  -10.9750   13.7667  -23.0592 H   0  0  0  0  0  0  0  0  0  0  0  0
  -12.1135   11.8176  -22.9302 H   0  0  0  0  0  0  0  0  0  0  0  0
  -13.9587   11.5236  -26.0651 H   0  0  0  0  0  0  0  0  0  0  0  0
   -8.1566    9.0710  -24.2949 H   0  0  0  0  0  0  0  0  0  0  0  0
  -10.2883    6.9413  -27.8081 H   0  0  0  0  0  0  0  0  0  0  0  0
  -11.5242    8.0947  -28.3951 H   0  0  0  0  0  0  0  0  0  0  0  0
   -9.4126   13.0880  -24.2969 H   0  0  0  0  0  0  0  0  0  0  0  0
  -11.3095   15.6622  -23.2433 H   0  0  0  0  0  0  0  0  0  0  0  0
  1  2  1  0
  2  3  1  0
  3  4  1  0
  4  5  1  0
  5  6  1  0
  5  7  1  0
  7  8  1  0
  8  9  2  0
  9 10  1  0
 10 11  2  0
 11 12  1  0
 12 13  2  0
 13 14  1  0
 14 15  2  0
 15 16  1  0
  4 17  1  0
  3 18  1  0
  6  2  1  0
 11  7  1  0
 15 10  1  0
  1 19  1  0
  1 20  1  0
  2 21  1  0
  3 22  1  0
  4 23  1  0
  5 24  1  0
  8 25  1  0
 13 26  1  0
 16 27  1  0
 16 28  1  0
 17 29  1  0
 18 30  1  0
M  RAD  1   1   2
M  END
$$$$

     RDKit          3D

 30 32  0  0  0  0  0  0  0  0999 V2000
  -12.9108   13.8113  -21.7082 C   0  0  0  0  0  3  0  0  0  0  0  0
  -12.1919   13.8779  -23.0292 C   0  0  0  0  0  0  0  0  0  0  0  0
  -12.9802   14.5571  -24.1003 C   0  0  0  0  0  0  0  0  0  0  0  0
  -12.4388   13.9286  -25.3721 C   0  0  0  0  0  0  0  0  0  0  0  0
  -11.4236   12.9594  -24.8271 C   0  0  0  0  0  0  0  0  0  0  0  0
  -11.9472   12.6141  -23.5654 O   0  0  0  0  0  0  0  0  0  0  0  0
  -11.2155   11.8210  -25.6656 N   0  0  0  0  0  0  0  0  0  0  0  0
  -11.1284   11.8094  -26.9968 C   0  0  0  0  0  0  0  0  0  0  0  0
  -10.9271   10.5352  -27.4449 N   0  0  0  0  0  0  0  0  0  0  0  0
  -10.8859    9.7323  -26.3927 C   0  0  0  0  0  0  0  0  0  0  0  0
  -11.0678   10.5452  -25.2761 C   0  0  0  0  0  0  0  0  0  0  0  0
  -11.0608    9.9304  -24.0890 N   0  0  0  0  0  0  0  0  0  0  0  0
  -10.8893    8.6029  -23.9603 C   0  0  0  0  0  0  0  0  0  0  0  0
  -10.7140    7.8255  -25.0507 N   0  0  0  0  0  0  0  0  0  0  0  0
  -10.7089    8.3706  -26.2783 C   0  0  0  0  0  0  0  0  0  0  0  0
  -10.5199    7.4996  -27.3834 N   0  0  0  0  0  0  0  0  0  0  0  0
  -13.4637   13.2580  -26.0643 O   0  0  0  0  0  0  0  0  0  0  0  0
  -12.6534   15.9294  -24.0517 O   0  0  0  0  0  0  0  0  0  0  0  0
  -12.1478   13.7896  -20.9027 H   0  0  0  0  0  0  0  0  0  0  0  0
  -13.6195   12.9883  -21.6400 H   0  0  0  0  0  0  0  0  0  0  0  0
  -11.2119   14.3797  -22.9427 H   0  0  0  0  0  0  0  0  0  0  0  0
  -14.0736   14.4232  -24.0091 H   0  0  0  0  0  0  0  0  0  0  0  0
  -11.9554   14.6667  -26.0358 H   0  0  0  0  0  0  0  0  0  0  0  0
  -10.4990   13.5374  -24.6255 H   0  0  0  0  0  0  0  0  0  0  0  0
  -11.1979   12.6487  -27.6848 H   0  0  0  0  0  0  0  0  0  0  0  0
  -10.9000    8.2055  -22.9564 H   0  0  0  0  0  0  0  0  0  0  0  0
  -11.2363    6.8014  -27.7023 H   0  0  0  0  0  0  0  0  0  0  0  0
   -9.6347    7.5158  -27.9435 H   0  0  0  0  0  0  0  0  0  0  0  0
  -13.9506   13.9002  -26.6359 H   0  0  0  0  0  0  0  0  0  0  0  0
  -12.5329   16.1372  -23.0896 H   0  0  0  0  0  0  0  0  0  0  0  0
  1  2  1  0
  2  3  1  0
  3  4  1  0
  4  5  1  0
  5  6  1  0
  5  7  1  0
  7  8  1  0
  8  9  2  0
  9 10  1  0
 10 11  2  0
 11 12  1  0
 12 13  2  0
 13 14  1  0
 14 15  2  0
 15 16  1  0
  4 17  1  0
  3 18  1  0
  6  2  1  0
 11  7  1  0
 15 10  1  0
  1 19  1  0
  1 20  1  0
  2 21  1  0
  3 22  1  0
  4 23  1  0
  5 24  1  0
  8 25  1  0
 13 26  1  0
 16 27  1  0
 16 28  1  0
 17 29  1  0
 18 30  1  0
M  RAD  1   1   2
M  END
$$$$

     RDKit          3D

 30 32  0  0  0  0  0  0  0  0999 V2000
  -13.3760   13.6905  -22.0305 C   0  0  0  0  0  3  0  0  0  0  0  0
  -12.1847   13.7958  -22.9311 C   0  0  0  0  0  0  0  0  0  0  0  0
  -12.5211   14.7478  -24.0488 C   0  0  0  0  0  0  0  0  0  0  0  0
  -12.4294   13.8243  -25.2675 C   0  0  0  0  0  0  0  0  0  0  0  0
  -11.3169   12.8982  -24.7541 C   0  0  0  0  0  0  0  0  0  0  0  0
  -11.8020   12.6023  -23.4912 O   0  0  0  0  0  0  0  0  0  0  0  0
  -11.1370   11.7648  -25.5915 N   0  0  0  0  0  0  0  0  0  0  0  0
  -10.9666   11.8156  -26.9227 C   0  0  0  0  0  0  0  0  0  0  0  0
  -10.8276   10.5557  -27.3856 N   0  0  0  0  0  0  0  0  0  0  0  0
  -10.9083    9.7120  -26.3628 C   0  0  0  0  0  0  0  0  0  0  0  0
  -11.1030   10.4719  -25.2338 C   0  0  0  0  0  0  0  0  0  0  0  0
  -11.2139    9.8015  -24.0625 N   0  0  0  0  0  0  0  0  0  0  0  0
  -11.1416    8.4630  -23.9768 C   0  0  0  0  0  0  0  0  0  0  0  0
  -10.9507    7.7636  -25.1056 N   0  0  0  0  0  0  0  0  0  0  0  0
  -10.8293    8.3337  -26.3093 C   0  0  0  0  0  0  0  0  0  0  0  0
  -10.6292    7.5346  -27.4612 N   0  0  0  0  0  0  0  0  0  0  0  0
  -12.0317   14.5071  -26.3981 O   0  0  0  0  0  0  0  0  0  0  0  0
  -13.7580   15.3257  -23.9231 O   0  0  0  0  0  0  0  0  0  0  0  0
  -13.1433   13.4045  -21.0022 H   0  0  0  0  0  0  0  0  0  0  0  0
  -14.2158   13.1509  -22.4715 H   0  0  0  0  0  0  0  0  0  0  0  0
  -11.3288   14.2016  -22.3555 H   0  0  0  0  0  0  0  0  0  0  0  0
  -11.7027   15.5097  -24.2033 H   0  0  0  0  0  0  0  0  0  0  0  0
  -13.3589   13.2571  -25.4245 H   0  0  0  0  0  0  0  0  0  0  0  0
  -10.4011   13.5068  -24.6221 H   0  0  0  0  0  0  0  0  0  0  0  0
  -10.9387   12.6995  -27.5590 H   0  0  0  0  0  0  0  0  0  0  0  0
  -11.2333    7.9337  -23.0202 H   0  0  0  0  0  0  0  0  0  0  0  0
  -11.4253    7.4203  -28.1177 H   0  0  0  0  0  0  0  0  0  0  0  0
   -9.7343    7.0595  -27.6833 H   0  0  0  0  0  0  0  0  0  0  0  0
  -12.8493   14.8754  -26.8212 H   0  0  0  0  0  0  0  0  0  0  0  0
  -13.7117   16.3320  -23.9555 H   0  0  0  0  0  0  0  0  0  0  0  0
  1  2  1  0
  2  3  1  0
  3  4  1  0
  4  5  1  0
  5  6  1  0
  5  7  1  0
  7  8  1  0
  8  9  2  0
  9 10  1  0
 10 11  2  0
 11 12  1  0
 12 13  2  0
 13 14  1  0
 14 15  2  0
 15 16  1  0
  4 17  1  0
  3 18  1  0
  6  2  1  0
 11  7  1  0
 15 10  1  0
  1 19  1  0
  1 20  1  0
  2 21  1  0
  3 22  1  0
  4 23  1  0
  5 24  1  0
  8 25  1  0
 13 26  1  0
 16 27  1  0
 16 28  1  0
 17 29  1  0
 18 30  1  0
M  RAD  1   1   2
M  END
$$$$

     RDKit          3D

 30 32  0  0  0  0  0  0  0  0999 V2000
  -11.9781   13.9923  -21.6568 C   0  0  0  0  0  3  0  0  0  0  0  0
  -12.6761   13.6887  -22.9606 C   0  0  0  0  0  0  0  0  0  0  0  0
  -12.3148   14.7470  -23.9451 C   0  0  0  0  0  0  0  0  0  0  0  0
  -11.6955   13.9202  -25.0819 C   0  0  0  0  0  0  0  0  0  0  0  0
  -12.4654   12.6197  -24.8514 C   0  0  0  0  0  0  0  0  0  0  0  0
  -12.2913   12.4606  -23.4914 O   0  0  0  0  0  0  0  0  0  0  0  0
  -11.8697   11.5652  -25.6328 N   0  0  0  0  0  0  0  0  0  0  0  0
  -11.6529   11.6834  -26.9564 C   0  0  0  0  0  0  0  0  0  0  0  0
  -11.0960   10.5702  -27.4231 N   0  0  0  0  0  0  0  0  0  0  0  0
  -10.9595    9.7374  -26.3782 C   0  0  0  0  0  0  0  0  0  0  0  0
  -11.4477   10.3683  -25.2550 C   0  0  0  0  0  0  0  0  0  0  0  0
  -11.4465    9.7762  -24.0354 N   0  0  0  0  0  0  0  0  0  0  0  0
  -10.9400    8.5306  -23.9773 C   0  0  0  0  0  0  0  0  0  0  0  0
  -10.4543    7.8905  -25.0691 N   0  0  0  0  0  0  0  0  0  0  0  0
  -10.4465    8.4583  -26.2834 C   0  0  0  0  0  0  0  0  0  0  0  0
   -9.9464    7.8177  -27.4457 N   0  0  0  0  0  0  0  0  0  0  0  0
  -11.9571   14.4819  -26.3035 O   0  0  0  0  0  0  0  0  0  0  0  0
  -13.4892   15.2997  -24.5088 O   0  0  0  0  0  0  0  0  0  0  0  0
  -12.5029   13.5392  -20.7999 H   0  0  0  0  0  0  0  0  0  0  0  0
  -12.0747   15.1086  -21.5130 H   0  0  0  0  0  0  0  0  0  0  0  0
  -13.7606   13.6289  -22.7358 H   0  0  0  0  0  0  0  0  0  0  0  0
  -11.6402   15.5215  -23.5820 H   0  0  0  0  0  0  0  0  0  0  0  0
  -10.6193   13.7809  -24.8617 H   0  0  0  0  0  0  0  0  0  0  0  0
  -13.5195   12.7948  -25.0543 H   0  0  0  0  0  0  0  0  0  0  0  0
  -11.8794   12.5402  -27.6025 H   0  0  0  0  0  0  0  0  0  0  0  0
  -10.9326    8.0418  -23.0027 H   0  0  0  0  0  0  0  0  0  0  0  0
   -9.0742    8.1593  -27.8769 H   0  0  0  0  0  0  0  0  0  0  0  0
  -10.4502    7.0196  -27.8541 H   0  0  0  0  0  0  0  0  0  0  0  0
  -12.3108   15.4042  -26.2318 H   0  0  0  0  0  0  0  0  0  0  0  0
  -14.2334   15.3065  -23.8817 H   0  0  0  0  0  0  0  0  0  0  0  0
  1  2  1  0
  2  3  1  0
  3  4  1  0
  4  5  1  0
  5  6  1  0
  5  7  1  0
  7  8  1  0
  8  9  2  0
  9 10  1  0
 10 11  2  0
 11 12  1  0
 12 13  2  0
 13 14  1  0
 14 15  2  0
 15 16  1  0
  4 17  1  0
  3 18  1  0
  6  2  1  0
 11  7  1  0
 15 10  1  0
  1 19  1  0
  1 20  1  0
  2 21  1  0
  3 22  1  0
  4 23  1  0
  5 24  1  0
  8 25  1  0
 13 26  1  0
 16 27  1  0
 16 28  1  0
 17 29  1  0
 18 30  1  0
M  RAD  1   1   2
M  END
$$$$

     RDKit          3D

 30 32  0  0  0  0  0  0  0  0999 V2000
  -13.5030   14.4922  -22.2827 C   0  0  0  0  0  3  0  0  0  0  0  0
  -13.5905   13.7912  -23.6358 C   0  0  0  0  0  0  0  0  0  0  0  0
  -12.8113   14.5587  -24.6788 C   0  0  0  0  0  0  0  0  0  0  0  0
  -11.4600   13.9041  -24.5720 C   0  0  0  0  0  0  0  0  0  0  0  0
  -11.8039   12.5248  -24.1039 C   0  0  0  0  0  0  0  0  0  0  0  0
  -13.0518   12.5390  -23.5480 O   0  0  0  0  0  0  0  0  0  0  0  0
  -11.6702   11.5371  -25.1674 N   0  0  0  0  0  0  0  0  0  0  0  0
  -12.1255   11.6258  -26.4300 C   0  0  0  0  0  0  0  0  0  0  0  0
  -11.8109   10.5151  -27.1226 N   0  0  0  0  0  0  0  0  0  0  0  0
  -11.1412    9.6932  -26.2964 C   0  0  0  0  0  0  0  0  0  0  0  0
  -11.0517   10.3272  -25.0769 C   0  0  0  0  0  0  0  0  0  0  0  0
  -10.4150    9.6839  -24.0853 N   0  0  0  0  0  0  0  0  0  0  0  0
   -9.8865    8.4643  -24.2848 C   0  0  0  0  0  0  0  0  0  0  0  0
   -9.9825    7.8510  -25.4934 N   0  0  0  0  0  0  0  0  0  0  0  0
  -10.6097    8.4429  -26.5324 C   0  0  0  0  0  0  0  0  0  0  0  0
  -10.7138    7.8063  -27.8007 N   0  0  0  0  0  0  0  0  0  0  0  0
  -10.7499   13.9329  -25.7555 O   0  0  0  0  0  0  0  0  0  0  0  0
  -12.7495   15.9182  -24.3894 O   0  0  0  0  0  0  0  0  0  0  0  0
  -12.5232   14.2824  -21.8425 H   0  0  0  0  0  0  0  0  0  0  0  0
  -13.6912   15.5902  -22.4388 H   0  0  0  0  0  0  0  0  0  0  0  0
  -14.6618   13.7859  -23.9189 H   0  0  0  0  0  0  0  0  0  0  0  0
  -13.2886   14.4329  -25.6490 H   0  0  0  0  0  0  0  0  0  0  0  0
  -10.8696   14.4832  -23.8075 H   0  0  0  0  0  0  0  0  0  0  0  0
  -11.0708   12.2655  -23.2926 H   0  0  0  0  0  0  0  0  0  0  0  0
  -12.6707   12.4448  -26.8792 H   0  0  0  0  0  0  0  0  0  0  0  0
   -9.3744    7.9599  -23.4682 H   0  0  0  0  0  0  0  0  0  0  0  0
  -11.6056    7.3489  -28.0708 H   0  0  0  0  0  0  0  0  0  0  0  0
   -9.9346    7.7680  -28.4936 H   0  0  0  0  0  0  0  0  0  0  0  0
   -9.8325   14.3105  -25.6520 H   0  0  0  0  0  0  0  0  0  0  0  0
  -13.6169   16.3105  -24.6945 H   0  0  0  0  0  0  0  0  0  0  0  0
  1  2  1  0
  2  3  1  0
  3  4  1  0
  4  5  1  0
  5  6  1  0
  5  7  1  0
  7  8  1  0
  8  9  2  0
  9 10  1  0
 10 11  2  0
 11 12  1  0
 12 13  2  0
 13 14  1  0
 14 15  2  0
 15 16  1  0
  4 17  1  0
  3 18  1  0
  6  2  1  0
 11  7  1  0
 15 10  1  0
  1 19  1  0
  1 20  1  0
  2 21  1  0
  3 22  1  0
  4 23  1  0
  5 24  1  0
  8 25  1  0
 13 26  1  0
 16 27  1  0
 16 28  1  0
 17 29  1  0
 18 30  1  0
M  RAD  1   1   2
M  END
$$$$

     RDKit          3D

 30 32  0  0  0  0  0  0  0  0999 V2000
  -13.9411   14.2240  -22.3840 C   0  0  0  0  0  3  0  0  0  0  0  0
  -12.7612   13.6793  -23.1623 C   0  0  0  0  0  0  0  0  0  0  0  0
  -12.2044   14.6753  -24.1293 C   0  0  0  0  0  0  0  0  0  0  0  0
  -11.7445   13.7609  -25.2627 C   0  0  0  0  0  0  0  0  0  0  0  0
  -12.7876   12.6782  -25.1615 C   0  0  0  0  0  0  0  0  0  0  0  0
  -13.0559   12.5237  -23.8294 O   0  0  0  0  0  0  0  0  0  0  0  0
  -12.3956   11.4565  -25.8308 N   0  0  0  0  0  0  0  0  0  0  0  0
  -12.9250   10.9329  -26.9481 C   0  0  0  0  0  0  0  0  0  0  0  0
  -12.2850    9.7908  -27.2481 N   0  0  0  0  0  0  0  0  0  0  0  0
  -11.3436    9.5742  -26.3285 C   0  0  0  0  0  0  0  0  0  0  0  0
  -11.4169   10.6221  -25.4412 C   0  0  0  0  0  0  0  0  0  0  0  0
  -10.5573   10.6560  -24.3861 N   0  0  0  0  0  0  0  0  0  0  0  0
   -9.6637    9.6625  -24.2460 C   0  0  0  0  0  0  0  0  0  0  0  0
   -9.5920    8.6262  -25.1244 N   0  0  0  0  0  0  0  0  0  0  0  0
  -10.4230    8.5581  -26.1773 C   0  0  0  0  0  0  0  0  0  0  0  0
  -10.3916    7.5008  -27.1232 N   0  0  0  0  0  0  0  0  0  0  0  0
  -10.4778   13.3078  -24.9062 O   0  0  0  0  0  0  0  0  0  0  0  0
  -11.1606   15.3786  -23.5667 O   0  0  0  0  0  0  0  0  0  0  0  0
  -13.6162   15.1825  -21.9416 H   0  0  0  0  0  0  0  0  0  0  0  0
  -14.8439   14.3251  -23.0309 H   0  0  0  0  0  0  0  0  0  0  0  0
  -11.9617   13.4685  -22.4069 H   0  0  0  0  0  0  0  0  0  0  0  0
  -12.9838   15.3316  -24.5719 H   0  0  0  0  0  0  0  0  0  0  0  0
  -11.7137   14.2669  -26.2254 H   0  0  0  0  0  0  0  0  0  0  0  0
  -13.7059   13.0545  -25.6562 H   0  0  0  0  0  0  0  0  0  0  0  0
  -13.7465   11.3679  -27.5218 H   0  0  0  0  0  0  0  0  0  0  0  0
   -8.9932    9.7143  -23.3995 H   0  0  0  0  0  0  0  0  0  0  0  0
  -10.8784    6.6009  -27.0320 H   0  0  0  0  0  0  0  0  0  0  0  0
   -9.8217    7.6579  -27.9854 H   0  0  0  0  0  0  0  0  0  0  0  0
   -9.7899   13.5218  -25.5599 H   0  0  0  0  0  0  0  0  0  0  0  0
  -10.4916   15.5986  -24.2698 H   0  0  0  0  0  0  0  0  0  0  0  0
  1  2  1  0
  2  3  1  0
  3  4  1  0
  4  5  1  0
  5  6  1  0
  5  7  1  0
  7  8  1  0
  8  9  2  0
  9 10  1  0
 10 11  2  0
 11 12  1  0
 12 13  2  0
 13 14  1  0
 14 15  2  0
 15 16  1  0
  4 17  1  0
  3 18  1  0
  6  2  1  0
 11  7  1  0
 15 10  1  0
  1 19  1  0
  1 20  1  0
  2 21  1  0
  3 22  1  0
  4 23  1  0
  5 24  1  0
  8 25  1  0
 13 26  1  0
 16 27  1  0
 16 28  1  0
 17 29  1  0
 18 30  1  0
M  RAD  1   1   2
M  END
$$$$

     RDKit          3D

 30 32  0  0  0  0  0  0  0  0999 V2000
  -14.3131   15.2789  -24.8099 C   0  0  0  0  0  3  0  0  0  0  0  0
  -13.4618   14.0893  -24.4823 C   0  0  0  0  0  0  0  0  0  0  0  0
  -12.3248   14.4604  -23.5195 C   0  0  0  0  0  0  0  0  0  0  0  0
  -11.4538   13.2114  -23.7171 C   0  0  0  0  0  0  0  0  0  0  0  0
  -11.6695   12.9462  -25.1784 C   0  0  0  0  0  0  0  0  0  0  0  0
  -12.7800   13.6469  -25.5860 O   0  0  0  0  0  0  0  0  0  0  0  0
  -11.8822   11.5307  -25.4552 N   0  0  0  0  0  0  0  0  0  0  0  0
  -13.0745   10.8926  -25.5797 C   0  0  0  0  0  0  0  0  0  0  0  0
  -12.8602    9.5972  -25.8330 N   0  0  0  0  0  0  0  0  0  0  0  0
  -11.5110    9.4237  -25.8673 C   0  0  0  0  0  0  0  0  0  0  0  0
  -10.8994   10.6508  -25.6275 C   0  0  0  0  0  0  0  0  0  0  0  0
   -9.5531   10.6486  -25.6283 N   0  0  0  0  0  0  0  0  0  0  0  0
   -8.8512    9.5211  -25.8489 C   0  0  0  0  0  0  0  0  0  0  0  0
   -9.4094    8.3351  -26.0807 N   0  0  0  0  0  0  0  0  0  0  0  0
  -10.7648    8.2795  -26.0913 C   0  0  0  0  0  0  0  0  0  0  0  0
  -11.4240    7.0530  -26.3309 N   0  0  0  0  0  0  0  0  0  0  0  0
  -10.1338   13.4572  -23.3958 O   0  0  0  0  0  0  0  0  0  0  0  0
  -12.7604   14.5853  -22.2244 O   0  0  0  0  0  0  0  0  0  0  0  0
  -15.0861   15.4232  -24.0005 H   0  0  0  0  0  0  0  0  0  0  0  0
  -14.9065   15.0154  -25.7192 H   0  0  0  0  0  0  0  0  0  0  0  0
  -14.0358   13.2844  -23.9571 H   0  0  0  0  0  0  0  0  0  0  0  0
  -11.7386   15.3111  -23.8921 H   0  0  0  0  0  0  0  0  0  0  0  0
  -11.9258   12.4165  -23.1216 H   0  0  0  0  0  0  0  0  0  0  0  0
  -10.7668   13.3255  -25.7143 H   0  0  0  0  0  0  0  0  0  0  0  0
  -14.0194   11.3774  -25.4846 H   0  0  0  0  0  0  0  0  0  0  0  0
   -7.7581    9.6134  -25.8311 H   0  0  0  0  0  0  0  0  0  0  0  0
  -12.0840    6.9694  -27.1220 H   0  0  0  0  0  0  0  0  0  0  0  0
  -11.2299    6.2552  -25.7020 H   0  0  0  0  0  0  0  0  0  0  0  0
  -10.1001   13.6367  -22.4214 H   0  0  0  0  0  0  0  0  0  0  0  0
  -12.6925   15.5254  -21.8659 H   0  0  0  0  0  0  0  0  0  0  0  0
  1  2  1  0
  2  3  1  0
  3  4  1  0
  4  5  1  0
  5  6  1  0
  5  7  1  0
  7  8  1  0
  8  9  2  0
  9 10  1  0
 10 11  2  0
 11 12  1  0
 12 13  2  0
 13 14  1  0
 14 15  2  0
 15 16  1  0
  4 17  1  0
  3 18  1  0
  6  2  1  0
 11  7  1  0
 15 10  1  0
  1 19  1  0
  1 20  1  0
  2 21  1  0
  3 22  1  0
  4 23  1  0
  5 24  1  0
  8 25  1  0
 13 26  1  0
 16 27  1  0
 16 28  1  0
 17 29  1  0
 18 30  1  0
M  RAD  1   1   2
M  END
$$$$

     RDKit          3D

 30 32  0  0  0  0  0  0  0  0999 V2000
  -14.4245   14.4287  -23.4775 C   0  0  0  0  0  3  0  0  0  0  0  0
  -13.2815   14.4825  -24.4795 C   0  0  0  0  0  0  0  0  0  0  0  0
  -11.9430   14.6287  -23.8180 C   0  0  0  0  0  0  0  0  0  0  0  0
  -11.2788   13.2866  -24.1608 C   0  0  0  0  0  0  0  0  0  0  0  0
  -12.5044   12.4394  -24.3465 C   0  0  0  0  0  0  0  0  0  0  0  0
  -13.2817   13.2834  -25.1741 O   0  0  0  0  0  0  0  0  0  0  0  0
  -12.2842   11.2257  -25.0542 N   0  0  0  0  0  0  0  0  0  0  0  0
  -13.3122   10.5266  -25.6144 C   0  0  0  0  0  0  0  0  0  0  0  0
  -12.8117    9.4414  -26.2070 N   0  0  0  0  0  0  0  0  0  0  0  0
  -11.4976    9.4122  -26.0511 C   0  0  0  0  0  0  0  0  0  0  0  0
  -11.1682   10.5396  -25.3232 C   0  0  0  0  0  0  0  0  0  0  0  0
   -9.8978   10.7795  -25.0097 N   0  0  0  0  0  0  0  0  0  0  0  0
   -8.9508    9.8901  -25.4245 C   0  0  0  0  0  0  0  0  0  0  0  0
   -9.2643    8.7912  -26.1329 N   0  0  0  0  0  0  0  0  0  0  0  0
  -10.5313    8.5017  -26.4761 C   0  0  0  0  0  0  0  0  0  0  0  0
  -10.9027    7.3609  -27.2176 N   0  0  0  0  0  0  0  0  0  0  0  0
  -10.5850   12.8920  -23.0333 O   0  0  0  0  0  0  0  0  0  0  0  0
  -11.2074   15.6976  -24.2557 O   0  0  0  0  0  0  0  0  0  0  0  0
  -15.2419   15.1336  -23.7568 H   0  0  0  0  0  0  0  0  0  0  0  0
  -14.9028   13.4202  -23.4532 H   0  0  0  0  0  0  0  0  0  0  0  0
  -13.4996   15.2918  -25.1983 H   0  0  0  0  0  0  0  0  0  0  0  0
  -12.1210   14.6961  -22.7195 H   0  0  0  0  0  0  0  0  0  0  0  0
  -10.6578   13.3716  -25.0616 H   0  0  0  0  0  0  0  0  0  0  0  0
  -13.0158   12.3478  -23.3889 H   0  0  0  0  0  0  0  0  0  0  0  0
  -14.3602   10.7680  -25.6063 H   0  0  0  0  0  0  0  0  0  0  0  0
   -7.9011   10.0369  -25.1967 H   0  0  0  0  0  0  0  0  0  0  0  0
  -10.9692    7.3899  -28.2471 H   0  0  0  0  0  0  0  0  0  0  0  0
  -11.1112    6.4824  -26.7176 H   0  0  0  0  0  0  0  0  0  0  0  0
   -9.7547   13.3700  -22.8934 H   0  0  0  0  0  0  0  0  0  0  0  0
  -11.0099   15.6432  -25.2041 H   0  0  0  0  0  0  0  0  0  0  0  0
  1  2  1  0
  2  3  1  0
  3  4  1  0
  4  5  1  0
  5  6  1  0
  5  7  1  0
  7  8  1  0
  8  9  2  0
  9 10  1  0
 10 11  2  0
 11 12  1  0
 12 13  2  0
 13 14  1  0
 14 15  2  0
 15 16  1  0
  4 17  1  0
  3 18  1  0
  6  2  1  0
 11  7  1  0
 15 10  1  0
  1 19  1  0
  1 20  1  0
  2 21  1  0
  3 22  1  0
  4 23  1  0
  5 24  1  0
  8 25  1  0
 13 26  1  0
 16 27  1  0
 16 28  1  0
 17 29  1  0
 18 30  1  0
M  RAD  1   1   2
M  END
$$$$

     RDKit          3D

 30 32  0  0  0  0  0  0  0  0999 V2000
  -11.8972   14.5312  -22.0764 C   0  0  0  0  0  3  0  0  0  0  0  0
  -12.7310   13.7052  -23.0147 C   0  0  0  0  0  0  0  0  0  0  0  0
  -13.1583   14.5926  -24.1618 C   0  0  0  0  0  0  0  0  0  0  0  0
  -12.6743   13.7938  -25.3797 C   0  0  0  0  0  0  0  0  0  0  0  0
  -12.6864   12.3939  -24.7477 C   0  0  0  0  0  0  0  0  0  0  0  0
  -12.0284   12.6395  -23.5724 O   0  0  0  0  0  0  0  0  0  0  0  0
  -12.0848   11.4162  -25.5923 N   0  0  0  0  0  0  0  0  0  0  0  0
  -12.0982   11.4968  -26.9363 C   0  0  0  0  0  0  0  0  0  0  0  0
  -11.4428   10.4126  -27.4081 N   0  0  0  0  0  0  0  0  0  0  0  0
  -11.0347    9.6806  -26.3836 C   0  0  0  0  0  0  0  0  0  0  0  0
  -11.4330   10.3016  -25.2181 C   0  0  0  0  0  0  0  0  0  0  0  0
  -11.1279    9.7362  -24.0304 N   0  0  0  0  0  0  0  0  0  0  0  0
  -10.4335    8.5636  -23.9792 C   0  0  0  0  0  0  0  0  0  0  0  0
  -10.0595    7.9830  -25.1330 N   0  0  0  0  0  0  0  0  0  0  0  0
  -10.3284    8.4879  -26.3321 C   0  0  0  0  0  0  0  0  0  0  0  0
   -9.9390    7.8838  -27.5439 N   0  0  0  0  0  0  0  0  0  0  0  0
  -11.3733   14.1439  -25.6283 O   0  0  0  0  0  0  0  0  0  0  0  0
  -12.5963   15.8455  -24.1181 O   0  0  0  0  0  0  0  0  0  0  0  0
  -12.2134   15.6105  -22.1770 H   0  0  0  0  0  0  0  0  0  0  0  0
  -12.0716   14.2852  -21.0093 H   0  0  0  0  0  0  0  0  0  0  0  0
  -13.6011   13.3296  -22.4319 H   0  0  0  0  0  0  0  0  0  0  0  0
  -14.2667   14.5948  -24.1989 H   0  0  0  0  0  0  0  0  0  0  0  0
  -13.3572   13.8716  -26.2251 H   0  0  0  0  0  0  0  0  0  0  0  0
  -13.7503   12.1913  -24.5143 H   0  0  0  0  0  0  0  0  0  0  0  0
  -12.5385   12.2661  -27.5688 H   0  0  0  0  0  0  0  0  0  0  0  0
  -10.2061    8.1388  -23.0120 H   0  0  0  0  0  0  0  0  0  0  0  0
  -10.5821    7.2235  -28.0118 H   0  0  0  0  0  0  0  0  0  0  0  0
   -9.0197    8.0990  -27.9601 H   0  0  0  0  0  0  0  0  0  0  0  0
  -10.7220   13.3845  -25.5126 H   0  0  0  0  0  0  0  0  0  0  0  0
  -12.5958   16.2802  -24.9881 H   0  0  0  0  0  0  0  0  0  0  0  0
  1  2  1  0
  2  3  1  0
  3  4  1  0
  4  5  1  0
  5  6  1  0
  5  7  1  0
  7  8  1  0
  8  9  2  0
  9 10  1  0
 10 11  2  0
 11 12  1  0
 12 13  2  0
 13 14  1  0
 14 15  2  0
 15 16  1  0
  4 17  1  0
  3 18  1  0
  6  2  1  0
 11  7  1  0
 15 10  1  0
  1 19  1  0
  1 20  1  0
  2 21  1  0
  3 22  1  0
  4 23  1  0
  5 24  1  0
  8 25  1  0
 13 26  1  0
 16 27  1  0
 16 28  1  0
 17 29  1  0
 18 30  1  0
M  RAD  1   1   2
M  END
$$$$

     RDKit          3D

 30 32  0  0  0  0  0  0  0  0999 V2000
  -12.9447   14.2914  -22.0070 C   0  0  0  0  0  3  0  0  0  0  0  0
  -13.2944   13.8056  -23.3371 C   0  0  0  0  0  0  0  0  0  0  0  0
  -12.7644   14.7352  -24.3954 C   0  0  0  0  0  0  0  0  0  0  0  0
  -11.5704   14.0249  -24.9248 C   0  0  0  0  0  0  0  0  0  0  0  0
  -11.6489   12.6630  -24.3346 C   0  0  0  0  0  0  0  0  0  0  0  0
  -12.8028   12.5458  -23.6014 O   0  0  0  0  0  0  0  0  0  0  0  0
  -11.5489   11.6067  -25.3319 N   0  0  0  0  0  0  0  0  0  0  0  0
  -11.9278   11.7083  -26.6190 C   0  0  0  0  0  0  0  0  0  0  0  0
  -11.6916   10.5336  -27.2601 N   0  0  0  0  0  0  0  0  0  0  0  0
  -11.1644    9.6764  -26.3988 C   0  0  0  0  0  0  0  0  0  0  0  0
  -11.0741   10.3495  -25.1862 C   0  0  0  0  0  0  0  0  0  0  0  0
  -10.5693    9.7238  -24.1079 N   0  0  0  0  0  0  0  0  0  0  0  0
  -10.1561    8.4484  -24.2171 C   0  0  0  0  0  0  0  0  0  0  0  0
  -10.2453    7.7984  -25.3949 N   0  0  0  0  0  0  0  0  0  0  0  0
  -10.7404    8.3666  -26.5115 C   0  0  0  0  0  0  0  0  0  0  0  0
  -10.8213    7.6539  -27.7404 N   0  0  0  0  0  0  0  0  0  0  0  0
  -10.4312   14.7322  -24.4897 O   0  0  0  0  0  0  0  0  0  0  0  0
  -13.7310   14.9444  -25.3982 O   0  0  0  0  0  0  0  0  0  0  0  0
  -13.5972   14.9621  -21.4933 H   0  0  0  0  0  0  0  0  0  0  0  0
  -11.9497   14.1246  -21.6280 H   0  0  0  0  0  0  0  0  0  0  0  0
  -14.3980   13.7640  -23.4516 H   0  0  0  0  0  0  0  0  0  0  0  0
  -12.5496   15.7360  -23.9624 H   0  0  0  0  0  0  0  0  0  0  0  0
  -11.5373   14.0505  -26.0320 H   0  0  0  0  0  0  0  0  0  0  0  0
  -10.7945   12.5721  -23.5990 H   0  0  0  0  0  0  0  0  0  0  0  0
  -12.3581   12.5478  -27.1402 H   0  0  0  0  0  0  0  0  0  0  0  0
   -9.7383    7.9100  -23.3513 H   0  0  0  0  0  0  0  0  0  0  0  0
  -10.0035    7.5098  -28.3707 H   0  0  0  0  0  0  0  0  0  0  0  0
  -11.7305    7.2474  -28.0466 H   0  0  0  0  0  0  0  0  0  0  0  0
  -10.6526   15.0058  -23.5443 H   0  0  0  0  0  0  0  0  0  0  0  0
  -14.6319   14.6310  -25.0851 H   0  0  0  0  0  0  0  0  0  0  0  0
  1  2  1  0
  2  3  1  0
  3  4  1  0
  4  5  1  0
  5  6  1  0
  5  7  1  0
  7  8  1  0
  8  9  2  0
  9 10  1  0
 10 11  2  0
 11 12  1  0
 12 13  2  0
 13 14  1  0
 14 15  2  0
 15 16  1  0
  4 17  1  0
  3 18  1  0
  6  2  1  0
 11  7  1  0
 15 10  1  0
  1 19  1  0
  1 20  1  0
  2 21  1  0
  3 22  1  0
  4 23  1  0
  5 24  1  0
  8 25  1  0
 13 26  1  0
 16 27  1  0
 16 28  1  0
 17 29  1  0
 18 30  1  0
M  RAD  1   1   2
M  END
$$$$

     RDKit          3D

 30 32  0  0  0  0  0  0  0  0999 V2000
  -14.5660   15.0451  -23.8097 C   0  0  0  0  0  3  0  0  0  0  0  0
  -13.3003   14.4733  -24.3644 C   0  0  0  0  0  0  0  0  0  0  0  0
  -12.3107   14.2133  -23.2457 C   0  0  0  0  0  0  0  0  0  0  0  0
  -11.4948   13.0335  -23.7853 C   0  0  0  0  0  0  0  0  0  0  0  0
  -12.1579   12.8127  -25.1307 C   0  0  0  0  0  0  0  0  0  0  0  0
  -13.4785   13.1685  -24.8643 O   0  0  0  0  0  0  0  0  0  0  0  0
  -12.1014   11.4542  -25.5607 N   0  0  0  0  0  0  0  0  0  0  0  0
  -13.1391   10.7467  -26.0373 C   0  0  0  0  0  0  0  0  0  0  0  0
  -12.7561    9.5136  -26.3491 N   0  0  0  0  0  0  0  0  0  0  0  0
  -11.4472    9.3890  -26.0800 C   0  0  0  0  0  0  0  0  0  0  0  0
  -11.0535   10.6133  -25.5872 C   0  0  0  0  0  0  0  0  0  0  0  0
   -9.7530   10.7531  -25.2337 N   0  0  0  0  0  0  0  0  0  0  0  0
   -8.9175    9.7067  -25.3776 C   0  0  0  0  0  0  0  0  0  0  0  0
   -9.3075    8.5171  -25.8582 N   0  0  0  0  0  0  0  0  0  0  0  0
  -10.5879    8.3212  -26.2251 C   0  0  0  0  0  0  0  0  0  0  0  0
  -11.0454    7.0847  -26.7370 N   0  0  0  0  0  0  0  0  0  0  0  0
  -10.1740   13.4159  -23.9060 O   0  0  0  0  0  0  0  0  0  0  0  0
  -11.5364   15.3463  -23.1041 O   0  0  0  0  0  0  0  0  0  0  0  0
  -15.2490   15.2378  -24.6765 H   0  0  0  0  0  0  0  0  0  0  0  0
  -15.0402   14.2873  -23.1538 H   0  0  0  0  0  0  0  0  0  0  0  0
  -12.8670   15.0719  -25.1772 H   0  0  0  0  0  0  0  0  0  0  0  0
  -12.8898   13.9418  -22.3563 H   0  0  0  0  0  0  0  0  0  0  0  0
  -11.6529   12.1922  -23.1030 H   0  0  0  0  0  0  0  0  0  0  0  0
  -11.7608   13.5324  -25.8659 H   0  0  0  0  0  0  0  0  0  0  0  0
  -14.1648   11.1186  -26.1586 H   0  0  0  0  0  0  0  0  0  0  0  0
   -7.8572    9.7790  -25.1031 H   0  0  0  0  0  0  0  0  0  0  0  0
  -10.6912    6.7449  -27.6361 H   0  0  0  0  0  0  0  0  0  0  0  0
  -11.7347    6.5408  -26.1907 H   0  0  0  0  0  0  0  0  0  0  0  0
   -9.9396   13.7678  -24.7845 H   0  0  0  0  0  0  0  0  0  0  0  0
  -10.5769   15.1918  -23.0979 H   0  0  0  0  0  0  0  0  0  0  0  0
  1  2  1  0
  2  3  1  0
  3  4  1  0
  4  5  1  0
  5  6  1  0
  5  7  1  0
  7  8  1  0
  8  9  2  0
  9 10  1  0
 10 11  2  0
 11 12  1  0
 12 13  2  0
 13 14  1  0
 14 15  2  0
 15 16  1  0
  4 17  1  0
  3 18  1  0
  6  2  1  0
 11  7  1  0
 15 10  1  0
  1 19  1  0
  1 20  1  0
  2 21  1  0
  3 22  1  0
  4 23  1  0
  5 24  1  0
  8 25  1  0
 13 26  1  0
 16 27  1  0
 16 28  1  0
 17 29  1  0
 18 30  1  0
M  RAD  1   1   2
M  END
$$$$

     RDKit          3D

 30 32  0  0  0  0  0  0  0  0999 V2000
  -13.8311   15.7322  -24.4784 C   0  0  0  0  0  3  0  0  0  0  0  0
  -13.3819   14.3311  -24.1509 C   0  0  0  0  0  0  0  0  0  0  0  0
  -12.1882   14.2941  -23.2521 C   0  0  0  0  0  0  0  0  0  0  0  0
  -11.5667   12.9445  -23.6356 C   0  0  0  0  0  0  0  0  0  0  0  0
  -11.9842   12.8505  -25.0790 C   0  0  0  0  0  0  0  0  0  0  0  0
  -13.1469   13.5462  -25.2431 O   0  0  0  0  0  0  0  0  0  0  0  0
  -12.0921   11.4425  -25.4090 N   0  0  0  0  0  0  0  0  0  0  0  0
  -13.1456   10.6513  -25.5376 C   0  0  0  0  0  0  0  0  0  0  0  0
  -12.7851    9.3973  -25.8577 N   0  0  0  0  0  0  0  0  0  0  0  0
  -11.4237    9.3866  -25.9382 C   0  0  0  0  0  0  0  0  0  0  0  0
  -10.9976   10.6666  -25.6570 C   0  0  0  0  0  0  0  0  0  0  0  0
   -9.6763   10.9494  -25.6652 N   0  0  0  0  0  0  0  0  0  0  0  0
   -8.7941    9.9745  -25.9485 C   0  0  0  0  0  0  0  0  0  0  0  0
   -9.2113    8.7260  -26.2227 N   0  0  0  0  0  0  0  0  0  0  0  0
  -10.4986    8.4093  -26.2245 C   0  0  0  0  0  0  0  0  0  0  0  0
  -10.9480    7.0888  -26.5141 N   0  0  0  0  0  0  0  0  0  0  0  0
  -12.1926   11.9233  -22.9303 O   0  0  0  0  0  0  0  0  0  0  0  0
  -11.2630   15.2939  -23.5120 O   0  0  0  0  0  0  0  0  0  0  0  0
  -12.9990   16.3673  -24.8497 H   0  0  0  0  0  0  0  0  0  0  0  0
  -14.2786   16.1509  -23.5366 H   0  0  0  0  0  0  0  0  0  0  0  0
  -14.2322   13.8575  -23.5792 H   0  0  0  0  0  0  0  0  0  0  0  0
  -12.4217   14.2568  -22.1904 H   0  0  0  0  0  0  0  0  0  0  0  0
  -10.4909   12.9986  -23.4797 H   0  0  0  0  0  0  0  0  0  0  0  0
  -11.2005   13.3399  -25.7257 H   0  0  0  0  0  0  0  0  0  0  0  0
  -14.1715   10.9823  -25.3998 H   0  0  0  0  0  0  0  0  0  0  0  0
   -7.7460   10.2541  -25.9418 H   0  0  0  0  0  0  0  0  0  0  0  0
  -11.6559    6.5840  -25.9500 H   0  0  0  0  0  0  0  0  0  0  0  0
  -10.5511    6.5860  -27.3392 H   0  0  0  0  0  0  0  0  0  0  0  0
  -12.2982   12.1886  -21.9943 H   0  0  0  0  0  0  0  0  0  0  0  0
  -10.4108   15.0267  -23.0805 H   0  0  0  0  0  0  0  0  0  0  0  0
  1  2  1  0
  2  3  1  0
  3  4  1  0
  4  5  1  0
  5  6  1  0
  5  7  1  0
  7  8  1  0
  8  9  2  0
  9 10  1  0
 10 11  2  0
 11 12  1  0
 12 13  2  0
 13 14  1  0
 14 15  2  0
 15 16  1  0
  4 17  1  0
  3 18  1  0
  6  2  1  0
 11  7  1  0
 15 10  1  0
  1 19  1  0
  1 20  1  0
  2 21  1  0
  3 22  1  0
  4 23  1  0
  5 24  1  0
  8 25  1  0
 13 26  1  0
 16 27  1  0
 16 28  1  0
 17 29  1  0
 18 30  1  0
M  RAD  1   1   2
M  END
$$$$

     RDKit          3D

 30 32  0  0  0  0  0  0  0  0999 V2000
  -14.0572   15.4233  -24.0373 C   0  0  0  0  0  3  0  0  0  0  0  0
  -13.4292   14.1281  -23.6439 C   0  0  0  0  0  0  0  0  0  0  0  0
  -11.9716   14.3210  -23.2980 C   0  0  0  0  0  0  0  0  0  0  0  0
  -11.3335   13.1074  -23.9684 C   0  0  0  0  0  0  0  0  0  0  0  0
  -12.5464   12.2289  -24.1773 C   0  0  0  0  0  0  0  0  0  0  0  0
  -13.4832   13.1550  -24.6384 O   0  0  0  0  0  0  0  0  0  0  0  0
  -12.3172   11.1471  -25.0758 N   0  0  0  0  0  0  0  0  0  0  0  0
  -13.2176   10.6818  -25.9522 C   0  0  0  0  0  0  0  0  0  0  0  0
  -12.6705    9.6651  -26.6340 N   0  0  0  0  0  0  0  0  0  0  0  0
  -11.4338    9.4859  -26.1950 C   0  0  0  0  0  0  0  0  0  0  0  0
  -11.1976   10.4231  -25.2033 C   0  0  0  0  0  0  0  0  0  0  0  0
   -9.9815   10.4294  -24.6011 N   0  0  0  0  0  0  0  0  0  0  0  0
   -9.0055    9.5649  -24.9303 C   0  0  0  0  0  0  0  0  0  0  0  0
   -9.2186    8.6476  -25.8920 N   0  0  0  0  0  0  0  0  0  0  0  0
  -10.4209    8.6031  -26.5233 C   0  0  0  0  0  0  0  0  0  0  0  0
  -10.6676    7.6475  -27.5373 N   0  0  0  0  0  0  0  0  0  0  0  0
  -10.7266   13.4511  -25.1660 O   0  0  0  0  0  0  0  0  0  0  0  0
  -11.4484   15.4978  -23.7822 O   0  0  0  0  0  0  0  0  0  0  0  0
  -14.5863   15.8508  -23.1615 H   0  0  0  0  0  0  0  0  0  0  0  0
  -14.7542   15.3643  -24.8755 H   0  0  0  0  0  0  0  0  0  0  0  0
  -13.9937   13.6914  -22.7683 H   0  0  0  0  0  0  0  0  0  0  0  0
  -11.8725   14.2107  -22.1990 H   0  0  0  0  0  0  0  0  0  0  0  0
  -10.5642   12.6369  -23.3273 H   0  0  0  0  0  0  0  0  0  0  0  0
  -12.8515   11.8617  -23.1731 H   0  0  0  0  0  0  0  0  0  0  0  0
  -14.2421   11.0159  -26.1425 H   0  0  0  0  0  0  0  0  0  0  0  0
   -8.0311    9.5579  -24.4589 H   0  0  0  0  0  0  0  0  0  0  0  0
  -11.5986    7.1741  -27.6034 H   0  0  0  0  0  0  0  0  0  0  0  0
   -9.9203    7.3999  -28.2376 H   0  0  0  0  0  0  0  0  0  0  0  0
  -11.3580   13.8495  -25.8161 H   0  0  0  0  0  0  0  0  0  0  0  0
  -10.4727   15.4710  -23.6452 H   0  0  0  0  0  0  0  0  0  0  0  0
  1  2  1  0
  2  3  1  0
  3  4  1  0
  4  5  1  0
  5  6  1  0
  5  7  1  0
  7  8  1  0
  8  9  2  0
  9 10  1  0
 10 11  2  0
 11 12  1  0
 12 13  2  0
 13 14  1  0
 14 15  2  0
 15 16  1  0
  4 17  1  0
  3 18  1  0
  6  2  1  0
 11  7  1  0
 15 10  1  0
  1 19  1  0
  1 20  1  0
  2 21  1  0
  3 22  1  0
  4 23  1  0
  5 24  1  0
  8 25  1  0
 13 26  1  0
 16 27  1  0
 16 28  1  0
 17 29  1  0
 18 30  1  0
M  RAD  1   1   2
M  END
$$$$

     RDKit          3D

 30 32  0  0  0  0  0  0  0  0999 V2000
  -13.2281   15.6912  -25.2534 C   0  0  0  0  0  3  0  0  0  0  0  0
  -13.2802   14.4088  -24.4741 C   0  0  0  0  0  0  0  0  0  0  0  0
  -12.1848   14.3824  -23.4330 C   0  0  0  0  0  0  0  0  0  0  0  0
  -11.5284   13.0239  -23.7126 C   0  0  0  0  0  0  0  0  0  0  0  0
  -12.7198   12.3256  -24.3353 C   0  0  0  0  0  0  0  0  0  0  0  0
  -13.0958   13.2837  -25.2780 O   0  0  0  0  0  0  0  0  0  0  0  0
  -12.4059   11.0556  -24.9010 N   0  0  0  0  0  0  0  0  0  0  0  0
  -13.2866   10.0303  -24.9663 C   0  0  0  0  0  0  0  0  0  0  0  0
  -12.7072    8.9585  -25.5522 N   0  0  0  0  0  0  0  0  0  0  0  0
  -11.4488    9.2947  -25.8653 C   0  0  0  0  0  0  0  0  0  0  0  0
  -11.2834   10.6018  -25.4517 C   0  0  0  0  0  0  0  0  0  0  0  0
  -10.0902   11.1701  -25.6588 N   0  0  0  0  0  0  0  0  0  0  0  0
   -9.0746   10.4936  -26.2528 C   0  0  0  0  0  0  0  0  0  0  0  0
   -9.2642    9.2115  -26.6491 N   0  0  0  0  0  0  0  0  0  0  0  0
  -10.4361    8.5827  -26.4712 C   0  0  0  0  0  0  0  0  0  0  0  0
  -10.6908    7.2480  -26.8639 N   0  0  0  0  0  0  0  0  0  0  0  0
  -11.0929   12.4194  -22.5576 O   0  0  0  0  0  0  0  0  0  0  0  0
  -11.3092   15.4261  -23.5799 O   0  0  0  0  0  0  0  0  0  0  0  0
  -12.5857   16.4140  -24.6952 H   0  0  0  0  0  0  0  0  0  0  0  0
  -14.2538   16.1435  -25.2460 H   0  0  0  0  0  0  0  0  0  0  0  0
  -14.2810   14.2818  -23.9690 H   0  0  0  0  0  0  0  0  0  0  0  0
  -12.6270   14.3065  -22.4052 H   0  0  0  0  0  0  0  0  0  0  0  0
  -10.7174   13.2057  -24.4485 H   0  0  0  0  0  0  0  0  0  0  0  0
  -13.5093   12.2785  -23.5682 H   0  0  0  0  0  0  0  0  0  0  0  0
  -14.3120    9.9992  -24.6236 H   0  0  0  0  0  0  0  0  0  0  0  0
   -8.1020   10.9340  -26.4299 H   0  0  0  0  0  0  0  0  0  0  0  0
  -10.8384    7.0302  -27.8658 H   0  0  0  0  0  0  0  0  0  0  0  0
  -10.7331    6.4806  -26.1692 H   0  0  0  0  0  0  0  0  0  0  0  0
  -10.2921   11.8448  -22.7716 H   0  0  0  0  0  0  0  0  0  0  0  0
  -10.3726   15.1878  -23.6484 H   0  0  0  0  0  0  0  0  0  0  0  0
  1  2  1  0
  2  3  1  0
  3  4  1  0
  4  5  1  0
  5  6  1  0
  5  7  1  0
  7  8  1  0
  8  9  2  0
  9 10  1  0
 10 11  2  0
 11 12  1  0
 12 13  2  0
 13 14  1  0
 14 15  2  0
 15 16  1  0
  4 17  1  0
  3 18  1  0
  6  2  1  0
 11  7  1  0
 15 10  1  0
  1 19  1  0
  1 20  1  0
  2 21  1  0
  3 22  1  0
  4 23  1  0
  5 24  1  0
  8 25  1  0
 13 26  1  0
 16 27  1  0
 16 28  1  0
 17 29  1  0
 18 30  1  0
M  RAD  1   1   2
M  END
$$$$

     RDKit          3D

 30 32  0  0  0  0  0  0  0  0999 V2000
  -13.7247   13.1022  -22.2988 C   0  0  0  0  0  3  0  0  0  0  0  0
  -13.3656   13.8760  -23.5467 C   0  0  0  0  0  0  0  0  0  0  0  0
  -11.9746   14.4374  -23.4980 C   0  0  0  0  0  0  0  0  0  0  0  0
  -11.2002   13.4163  -24.3340 C   0  0  0  0  0  0  0  0  0  0  0  0
  -12.2633   12.9163  -25.2440 C   0  0  0  0  0  0  0  0  0  0  0  0
  -13.4791   13.0323  -24.6087 O   0  0  0  0  0  0  0  0  0  0  0  0
  -12.0483   11.6210  -25.7926 N   0  0  0  0  0  0  0  0  0  0  0  0
  -12.7353   11.1757  -26.8821 C   0  0  0  0  0  0  0  0  0  0  0  0
  -12.3427    9.9481  -27.1788 N   0  0  0  0  0  0  0  0  0  0  0  0
  -11.4056    9.5803  -26.2976 C   0  0  0  0  0  0  0  0  0  0  0  0
  -11.2360   10.6289  -25.4463 C   0  0  0  0  0  0  0  0  0  0  0  0
  -10.3480   10.5190  -24.4632 N   0  0  0  0  0  0  0  0  0  0  0  0
   -9.6178    9.4090  -24.2872 C   0  0  0  0  0  0  0  0  0  0  0  0
   -9.7830    8.3656  -25.1300 N   0  0  0  0  0  0  0  0  0  0  0  0
  -10.6589    8.4251  -26.1301 C   0  0  0  0  0  0  0  0  0  0  0  0
  -10.8908    7.3766  -27.0550 N   0  0  0  0  0  0  0  0  0  0  0  0
  -10.1914   14.0830  -25.0229 O   0  0  0  0  0  0  0  0  0  0  0  0
  -11.8616   15.6953  -24.0399 O   0  0  0  0  0  0  0  0  0  0  0  0
  -14.5177   13.5515  -21.7066 H   0  0  0  0  0  0  0  0  0  0  0  0
  -12.8567   12.7339  -21.7434 H   0  0  0  0  0  0  0  0  0  0  0  0
  -14.1165   14.6873  -23.6428 H   0  0  0  0  0  0  0  0  0  0  0  0
  -11.6176   14.4589  -22.4506 H   0  0  0  0  0  0  0  0  0  0  0  0
  -10.7764   12.7054  -23.6389 H   0  0  0  0  0  0  0  0  0  0  0  0
  -12.3043   13.6325  -26.1194 H   0  0  0  0  0  0  0  0  0  0  0  0
  -13.4988   11.7158  -27.4510 H   0  0  0  0  0  0  0  0  0  0  0  0
   -8.8860    9.2824  -23.4992 H   0  0  0  0  0  0  0  0  0  0  0  0
  -10.5982    7.5115  -28.0456 H   0  0  0  0  0  0  0  0  0  0  0  0
  -11.3371    6.4787  -26.8014 H   0  0  0  0  0  0  0  0  0  0  0  0
  -10.6279   14.8576  -25.4848 H   0  0  0  0  0  0  0  0  0  0  0  0
  -12.6049   15.8981  -24.6526 H   0  0  0  0  0  0  0  0  0  0  0  0
  1  2  1  0
  2  3  1  0
  3  4  1  0
  4  5  1  0
  5  6  1  0
  5  7  1  0
  7  8  1  0
  8  9  2  0
  9 10  1  0
 10 11  2  0
 11 12  1  0
 12 13  2  0
 13 14  1  0
 14 15  2  0
 15 16  1  0
  4 17  1  0
  3 18  1  0
  6  2  1  0
 11  7  1  0
 15 10  1  0
  1 19  1  0
  1 20  1  0
  2 21  1  0
  3 22  1  0
  4 23  1  0
  5 24  1  0
  8 25  1  0
 13 26  1  0
 16 27  1  0
 16 28  1  0
 17 29  1  0
 18 30  1  0
M  RAD  1   1   2
M  END
$$$$

     RDKit          3D

 30 32  0  0  0  0  0  0  0  0999 V2000
  -10.6365   15.4127  -23.9768 C   0  0  0  0  0  3  0  0  0  0  0  0
  -11.3722   14.1898  -24.4754 C   0  0  0  0  0  0  0  0  0  0  0  0
  -12.8611   14.4628  -24.3428 C   0  0  0  0  0  0  0  0  0  0  0  0
  -13.4244   13.1049  -23.9420 C   0  0  0  0  0  0  0  0  0  0  0  0
  -12.2313   12.2283  -23.9025 C   0  0  0  0  0  0  0  0  0  0  0  0
  -11.1160   13.0673  -23.6950 O   0  0  0  0  0  0  0  0  0  0  0  0
  -12.0694   11.3710  -25.0283 N   0  0  0  0  0  0  0  0  0  0  0  0
  -12.7385   11.3982  -26.1930 C   0  0  0  0  0  0  0  0  0  0  0  0
  -12.2829   10.4183  -26.9906 N   0  0  0  0  0  0  0  0  0  0  0  0
  -11.3190    9.7625  -26.3330 C   0  0  0  0  0  0  0  0  0  0  0  0
  -11.1805   10.3615  -25.0916 C   0  0  0  0  0  0  0  0  0  0  0  0
  -10.2679    9.8892  -24.2232 N   0  0  0  0  0  0  0  0  0  0  0  0
   -9.4743    8.8444  -24.5170 C   0  0  0  0  0  0  0  0  0  0  0  0
   -9.6285    8.2814  -25.7274 N   0  0  0  0  0  0  0  0  0  0  0  0
  -10.5125    8.6892  -26.6508 C   0  0  0  0  0  0  0  0  0  0  0  0
  -10.6360    8.0594  -27.9162 N   0  0  0  0  0  0  0  0  0  0  0  0
  -14.0400   13.1806  -22.6799 O   0  0  0  0  0  0  0  0  0  0  0  0
  -13.3360   14.8863  -25.5704 O   0  0  0  0  0  0  0  0  0  0  0  0
   -9.5421   15.3227  -24.0782 H   0  0  0  0  0  0  0  0  0  0  0  0
  -11.0641   16.2887  -24.5009 H   0  0  0  0  0  0  0  0  0  0  0  0
  -11.1124   13.9486  -25.5087 H   0  0  0  0  0  0  0  0  0  0  0  0
  -13.0496   15.1933  -23.5308 H   0  0  0  0  0  0  0  0  0  0  0  0
  -14.1997   12.8415  -24.6568 H   0  0  0  0  0  0  0  0  0  0  0  0
  -12.2779   11.5729  -22.9870 H   0  0  0  0  0  0  0  0  0  0  0  0
  -13.5248   12.1098  -26.4373 H   0  0  0  0  0  0  0  0  0  0  0  0
   -8.7301    8.4660  -23.7978 H   0  0  0  0  0  0  0  0  0  0  0  0
  -10.4461    8.6078  -28.7756 H   0  0  0  0  0  0  0  0  0  0  0  0
  -10.9156    7.0570  -27.9534 H   0  0  0  0  0  0  0  0  0  0  0  0
  -13.5938   13.8577  -22.1238 H   0  0  0  0  0  0  0  0  0  0  0  0
  -12.8485   14.4079  -26.2919 H   0  0  0  0  0  0  0  0  0  0  0  0
  1  2  1  0
  2  3  1  0
  3  4  1  0
  4  5  1  0
  5  6  1  0
  5  7  1  0
  7  8  1  0
  8  9  2  0
  9 10  1  0
 10 11  2  0
 11 12  1  0
 12 13  2  0
 13 14  1  0
 14 15  2  0
 15 16  1  0
  4 17  1  0
  3 18  1  0
  6  2  1  0
 11  7  1  0
 15 10  1  0
  1 19  1  0
  1 20  1  0
  2 21  1  0
  3 22  1  0
  4 23  1  0
  5 24  1  0
  8 25  1  0
 13 26  1  0
 16 27  1  0
 16 28  1  0
 17 29  1  0
 18 30  1  0
M  RAD  1   1   2
M  END
$$$$

     RDKit          3D

 30 32  0  0  0  0  0  0  0  0999 V2000
  -13.9743   14.4473  -22.6758 C   0  0  0  0  0  3  0  0  0  0  0  0
  -13.6024   14.3034  -24.1225 C   0  0  0  0  0  0  0  0  0  0  0  0
  -12.2103   14.8552  -24.3379 C   0  0  0  0  0  0  0  0  0  0  0  0
  -11.5319   13.6934  -25.0422 C   0  0  0  0  0  0  0  0  0  0  0  0
  -12.3080   12.5164  -24.4898 C   0  0  0  0  0  0  0  0  0  0  0  0
  -13.6024   12.9902  -24.5023 O   0  0  0  0  0  0  0  0  0  0  0  0
  -12.1458   11.3443  -25.3136 N   0  0  0  0  0  0  0  0  0  0  0  0
  -12.9905   10.9636  -26.2894 C   0  0  0  0  0  0  0  0  0  0  0  0
  -12.5341    9.8460  -26.8366 N   0  0  0  0  0  0  0  0  0  0  0  0
  -11.3774    9.5137  -26.1936 C   0  0  0  0  0  0  0  0  0  0  0  0
  -11.1354   10.4584  -25.2354 C   0  0  0  0  0  0  0  0  0  0  0  0
  -10.0326   10.3220  -24.4757 N   0  0  0  0  0  0  0  0  0  0  0  0
   -9.1672    9.2853  -24.6344 C   0  0  0  0  0  0  0  0  0  0  0  0
   -9.4030    8.3467  -25.5827 N   0  0  0  0  0  0  0  0  0  0  0  0
  -10.5028    8.4596  -26.3590 C   0  0  0  0  0  0  0  0  0  0  0  0
  -10.8101    7.5095  -27.3731 N   0  0  0  0  0  0  0  0  0  0  0  0
  -10.1887   13.6535  -24.6736 O   0  0  0  0  0  0  0  0  0  0  0  0
  -11.6102   15.0994  -23.1184 O   0  0  0  0  0  0  0  0  0  0  0  0
  -15.0730   14.5435  -22.5182 H   0  0  0  0  0  0  0  0  0  0  0  0
  -13.5122   13.6759  -22.0377 H   0  0  0  0  0  0  0  0  0  0  0  0
  -14.3152   14.9010  -24.7202 H   0  0  0  0  0  0  0  0  0  0  0  0
  -12.1992   15.7718  -24.9511 H   0  0  0  0  0  0  0  0  0  0  0  0
  -11.6703   13.7467  -26.1388 H   0  0  0  0  0  0  0  0  0  0  0  0
  -11.9473   12.2796  -23.4827 H   0  0  0  0  0  0  0  0  0  0  0  0
  -13.9110   11.4570  -26.6154 H   0  0  0  0  0  0  0  0  0  0  0  0
   -8.2826    9.1643  -24.0344 H   0  0  0  0  0  0  0  0  0  0  0  0
  -11.7851    7.2543  -27.6459 H   0  0  0  0  0  0  0  0  0  0  0  0
  -10.0548    7.0144  -27.9012 H   0  0  0  0  0  0  0  0  0  0  0  0
   -9.6200   13.9463  -25.4495 H   0  0  0  0  0  0  0  0  0  0  0  0
  -10.8267   15.6810  -23.1647 H   0  0  0  0  0  0  0  0  0  0  0  0
  1  2  1  0
  2  3  1  0
  3  4  1  0
  4  5  1  0
  5  6  1  0
  5  7  1  0
  7  8  1  0
  8  9  2  0
  9 10  1  0
 10 11  2  0
 11 12  1  0
 12 13  2  0
 13 14  1  0
 14 15  2  0
 15 16  1  0
  4 17  1  0
  3 18  1  0
  6  2  1  0
 11  7  1  0
 15 10  1  0
  1 19  1  0
  1 20  1  0
  2 21  1  0
  3 22  1  0
  4 23  1  0
  5 24  1  0
  8 25  1  0
 13 26  1  0
 16 27  1  0
 16 28  1  0
 17 29  1  0
 18 30  1  0
M  RAD  1   1   2
M  END
$$$$

     RDKit          3D

 30 32  0  0  0  0  0  0  0  0999 V2000
  -12.2816   14.0709  -21.6518 C   0  0  0  0  0  3  0  0  0  0  0  0
  -12.6524   13.7506  -23.0574 C   0  0  0  0  0  0  0  0  0  0  0  0
  -11.9531   14.6713  -24.0372 C   0  0  0  0  0  0  0  0  0  0  0  0
  -12.0218   13.8589  -25.3112 C   0  0  0  0  0  0  0  0  0  0  0  0
  -12.5704   12.5151  -24.8107 C   0  0  0  0  0  0  0  0  0  0  0  0
  -12.1468   12.4980  -23.4804 O   0  0  0  0  0  0  0  0  0  0  0  0
  -11.9630   11.4979  -25.6118 N   0  0  0  0  0  0  0  0  0  0  0  0
  -11.8227   11.5806  -26.9500 C   0  0  0  0  0  0  0  0  0  0  0  0
  -11.2203   10.4781  -27.4057 N   0  0  0  0  0  0  0  0  0  0  0  0
  -10.9698    9.6838  -26.3749 C   0  0  0  0  0  0  0  0  0  0  0  0
  -11.4310   10.3162  -25.2583 C   0  0  0  0  0  0  0  0  0  0  0  0
  -11.3136    9.7469  -24.0601 N   0  0  0  0  0  0  0  0  0  0  0  0
  -10.7279    8.5346  -23.9924 C   0  0  0  0  0  0  0  0  0  0  0  0
  -10.2627    7.8867  -25.0831 N   0  0  0  0  0  0  0  0  0  0  0  0
  -10.3725    8.4458  -26.3007 C   0  0  0  0  0  0  0  0  0  0  0  0
   -9.8914    7.7895  -27.4786 N   0  0  0  0  0  0  0  0  0  0  0  0
  -12.8913   14.4018  -26.2224 O   0  0  0  0  0  0  0  0  0  0  0  0
  -12.6346   15.8813  -24.1693 O   0  0  0  0  0  0  0  0  0  0  0  0
  -11.3795   13.5840  -21.2886 H   0  0  0  0  0  0  0  0  0  0  0  0
  -12.2721   15.1830  -21.5409 H   0  0  0  0  0  0  0  0  0  0  0  0
  -13.7400   13.8231  -23.2461 H   0  0  0  0  0  0  0  0  0  0  0  0
  -10.8865   14.8332  -23.7385 H   0  0  0  0  0  0  0  0  0  0  0  0
  -10.9945   13.6935  -25.7003 H   0  0  0  0  0  0  0  0  0  0  0  0
  -13.6783   12.4995  -24.8420 H   0  0  0  0  0  0  0  0  0  0  0  0
  -12.1501   12.4175  -27.5659 H   0  0  0  0  0  0  0  0  0  0  0  0
  -10.6096    8.0345  -23.0522 H   0  0  0  0  0  0  0  0  0  0  0  0
   -9.7197    8.3474  -28.3256 H   0  0  0  0  0  0  0  0  0  0  0  0
   -9.7116    6.7740  -27.5039 H   0  0  0  0  0  0  0  0  0  0  0  0
  -13.7120   13.8727  -26.3401 H   0  0  0  0  0  0  0  0  0  0  0  0
  -13.4140   15.6862  -24.7777 H   0  0  0  0  0  0  0  0  0  0  0  0
  1  2  1  0
  2  3  1  0
  3  4  1  0
  4  5  1  0
  5  6  1  0
  5  7  1  0
  7  8  1  0
  8  9  2  0
  9 10  1  0
 10 11  2  0
 11 12  1  0
 12 13  2  0
 13 14  1  0
 14 15  2  0
 15 16  1  0
  4 17  1  0
  3 18  1  0
  6  2  1  0
 11  7  1  0
 15 10  1  0
  1 19  1  0
  1 20  1  0
  2 21  1  0
  3 22  1  0
  4 23  1  0
  5 24  1  0
  8 25  1  0
 13 26  1  0
 16 27  1  0
 16 28  1  0
 17 29  1  0
 18 30  1  0
M  RAD  1   1   2
M  END
$$$$

     RDKit          3D

 30 32  0  0  0  0  0  0  0  0999 V2000
  -13.1320   14.0574  -22.2978 C   0  0  0  0  0  3  0  0  0  0  0  0
  -11.8092   13.8738  -22.9948 C   0  0  0  0  0  0  0  0  0  0  0  0
  -11.7240   14.7088  -24.2453 C   0  0  0  0  0  0  0  0  0  0  0  0
  -12.3800   13.8518  -25.2747 C   0  0  0  0  0  0  0  0  0  0  0  0
  -12.4236   12.4912  -24.6303 C   0  0  0  0  0  0  0  0  0  0  0  0
  -11.6378   12.5803  -23.4832 O   0  0  0  0  0  0  0  0  0  0  0  0
  -11.9620   11.4738  -25.5455 N   0  0  0  0  0  0  0  0  0  0  0  0
  -12.0927   11.5498  -26.8823 C   0  0  0  0  0  0  0  0  0  0  0  0
  -11.5444   10.4186  -27.3874 N   0  0  0  0  0  0  0  0  0  0  0  0
  -11.0778    9.6440  -26.4034 C   0  0  0  0  0  0  0  0  0  0  0  0
  -11.3441   10.3182  -25.2186 C   0  0  0  0  0  0  0  0  0  0  0  0
  -10.9695    9.7434  -24.0743 N   0  0  0  0  0  0  0  0  0  0  0  0
  -10.3500    8.5522  -23.9913 C   0  0  0  0  0  0  0  0  0  0  0  0
  -10.1053    7.9219  -25.1614 N   0  0  0  0  0  0  0  0  0  0  0  0
  -10.4359    8.4048  -26.3547 C   0  0  0  0  0  0  0  0  0  0  0  0
  -10.1828    7.7503  -27.5844 N   0  0  0  0  0  0  0  0  0  0  0  0
  -13.6325   14.3168  -25.6323 O   0  0  0  0  0  0  0  0  0  0  0  0
  -12.3235   15.9511  -24.0944 O   0  0  0  0  0  0  0  0  0  0  0  0
  -13.0482   14.8745  -21.5524 H   0  0  0  0  0  0  0  0  0  0  0  0
  -13.9525   14.2599  -23.0090 H   0  0  0  0  0  0  0  0  0  0  0  0
  -10.9528   14.1521  -22.3401 H   0  0  0  0  0  0  0  0  0  0  0  0
  -10.6610   14.8296  -24.5002 H   0  0  0  0  0  0  0  0  0  0  0  0
  -11.7641   13.8306  -26.1945 H   0  0  0  0  0  0  0  0  0  0  0  0
  -13.4811   12.3019  -24.3286 H   0  0  0  0  0  0  0  0  0  0  0  0
  -12.5434   12.3469  -27.4651 H   0  0  0  0  0  0  0  0  0  0  0  0
  -10.0611    8.1192  -23.0311 H   0  0  0  0  0  0  0  0  0  0  0  0
  -10.9179    7.2280  -28.1026 H   0  0  0  0  0  0  0  0  0  0  0  0
   -9.2280    7.7862  -27.9958 H   0  0  0  0  0  0  0  0  0  0  0  0
  -14.2013   13.5545  -25.9049 H   0  0  0  0  0  0  0  0  0  0  0  0
  -12.8445   16.2439  -24.8708 H   0  0  0  0  0  0  0  0  0  0  0  0
  1  2  1  0
  2  3  1  0
  3  4  1  0
  4  5  1  0
  5  6  1  0
  5  7  1  0
  7  8  1  0
  8  9  2  0
  9 10  1  0
 10 11  2  0
 11 12  1  0
 12 13  2  0
 13 14  1  0
 14 15  2  0
 15 16  1  0
  4 17  1  0
  3 18  1  0
  6  2  1  0
 11  7  1  0
 15 10  1  0
  1 19  1  0
  1 20  1  0
  2 21  1  0
  3 22  1  0
  4 23  1  0
  5 24  1  0
  8 25  1  0
 13 26  1  0
 16 27  1  0
 16 28  1  0
 17 29  1  0
 18 30  1  0
M  RAD  1   1   2
M  END
$$$$

     RDKit          3D

 30 32  0  0  0  0  0  0  0  0999 V2000
  -14.1138   14.0641  -22.2565 C   0  0  0  0  0  3  0  0  0  0  0  0
  -12.9168   13.8121  -23.1197 C   0  0  0  0  0  0  0  0  0  0  0  0
  -12.7695   14.7676  -24.2585 C   0  0  0  0  0  0  0  0  0  0  0  0
  -11.9274   13.9837  -25.2458 C   0  0  0  0  0  0  0  0  0  0  0  0
  -11.8527   12.6314  -24.5750 C   0  0  0  0  0  0  0  0  0  0  0  0
  -13.0149   12.5751  -23.8021 O   0  0  0  0  0  0  0  0  0  0  0  0
  -11.7376   11.5501  -25.5035 N   0  0  0  0  0  0  0  0  0  0  0  0
  -12.1944   11.4435  -26.7649 C   0  0  0  0  0  0  0  0  0  0  0  0
  -11.8604   10.2378  -27.2861 N   0  0  0  0  0  0  0  0  0  0  0  0
  -11.1785    9.5558  -26.3490 C   0  0  0  0  0  0  0  0  0  0  0  0
  -11.1033   10.3736  -25.2415 C   0  0  0  0  0  0  0  0  0  0  0  0
  -10.4546    9.8902  -24.1643 N   0  0  0  0  0  0  0  0  0  0  0  0
   -9.9049    8.6449  -24.1910 C   0  0  0  0  0  0  0  0  0  0  0  0
   -9.9930    7.8756  -25.2761 N   0  0  0  0  0  0  0  0  0  0  0  0
  -10.6297    8.2906  -26.4005 C   0  0  0  0  0  0  0  0  0  0  0  0
  -10.7175    7.4684  -27.5446 N   0  0  0  0  0  0  0  0  0  0  0  0
  -10.6614   14.5108  -25.3581 O   0  0  0  0  0  0  0  0  0  0  0  0
  -12.0966   15.9326  -23.9188 O   0  0  0  0  0  0  0  0  0  0  0  0
  -13.7914   14.5436  -21.3063 H   0  0  0  0  0  0  0  0  0  0  0  0
  -14.9111   14.6116  -22.7780 H   0  0  0  0  0  0  0  0  0  0  0  0
  -11.9777   13.7472  -22.5358 H   0  0  0  0  0  0  0  0  0  0  0  0
  -13.7489   15.0610  -24.6638 H   0  0  0  0  0  0  0  0  0  0  0  0
  -12.3822   13.9512  -26.2473 H   0  0  0  0  0  0  0  0  0  0  0  0
  -11.0012   12.6789  -23.8623 H   0  0  0  0  0  0  0  0  0  0  0  0
  -12.7495   12.2258  -27.2722 H   0  0  0  0  0  0  0  0  0  0  0  0
   -9.4064    8.3280  -23.3017 H   0  0  0  0  0  0  0  0  0  0  0  0
  -10.9315    7.9446  -28.4610 H   0  0  0  0  0  0  0  0  0  0  0  0
  -10.5745    6.4391  -27.4696 H   0  0  0  0  0  0  0  0  0  0  0  0
  -10.0516   14.0253  -24.7545 H   0  0  0  0  0  0  0  0  0  0  0  0
  -11.1112   15.8379  -24.0137 H   0  0  0  0  0  0  0  0  0  0  0  0
  1  2  1  0
  2  3  1  0
  3  4  1  0
  4  5  1  0
  5  6  1  0
  5  7  1  0
  7  8  1  0
  8  9  2  0
  9 10  1  0
 10 11  2  0
 11 12  1  0
 12 13  2  0
 13 14  1  0
 14 15  2  0
 15 16  1  0
  4 17  1  0
  3 18  1  0
  6  2  1  0
 11  7  1  0
 15 10  1  0
  1 19  1  0
  1 20  1  0
  2 21  1  0
  3 22  1  0
  4 23  1  0
  5 24  1  0
  8 25  1  0
 13 26  1  0
 16 27  1  0
 16 28  1  0
 17 29  1  0
 18 30  1  0
M  RAD  1   1   2
M  END
$$$$

     RDKit          3D

 30 32  0  0  0  0  0  0  0  0999 V2000
  -10.5471   14.6719  -25.0757 C   0  0  0  0  0  3  0  0  0  0  0  0
  -11.3519   14.3184  -23.8229 C   0  0  0  0  0  0  0  0  0  0  0  0
  -12.8141   14.4837  -24.0079 C   0  0  0  0  0  0  0  0  0  0  0  0
  -13.3767   13.1380  -23.6274 C   0  0  0  0  0  0  0  0  0  0  0  0
  -12.1885   12.2485  -23.6723 C   0  0  0  0  0  0  0  0  0  0  0  0
  -11.0586   13.0356  -23.4896 O   0  0  0  0  0  0  0  0  0  0  0  0
  -12.0299   11.5000  -24.8776 N   0  0  0  0  0  0  0  0  0  0  0  0
  -12.5755   11.6332  -26.0904 C   0  0  0  0  0  0  0  0  0  0  0  0
  -12.1277   10.6852  -26.9358 N   0  0  0  0  0  0  0  0  0  0  0  0
  -11.2771    9.9303  -26.2457 C   0  0  0  0  0  0  0  0  0  0  0  0
  -11.2102   10.4262  -24.9727 C   0  0  0  0  0  0  0  0  0  0  0  0
  -10.4027    9.8093  -24.0991 N   0  0  0  0  0  0  0  0  0  0  0  0
   -9.6602    8.7179  -24.4459 C   0  0  0  0  0  0  0  0  0  0  0  0
   -9.7431    8.2553  -25.6899 N   0  0  0  0  0  0  0  0  0  0  0  0
  -10.5343    8.8238  -26.6250 C   0  0  0  0  0  0  0  0  0  0  0  0
  -10.5817    8.2834  -27.9420 N   0  0  0  0  0  0  0  0  0  0  0  0
  -14.4463   12.7414  -24.3758 O   0  0  0  0  0  0  0  0  0  0  0  0
  -13.2014   14.9060  -25.2604 O   0  0  0  0  0  0  0  0  0  0  0  0
  -10.8726   15.6510  -25.4596 H   0  0  0  0  0  0  0  0  0  0  0  0
  -10.6987   13.9082  -25.8625 H   0  0  0  0  0  0  0  0  0  0  0  0
  -10.9434   14.9853  -23.0079 H   0  0  0  0  0  0  0  0  0  0  0  0
  -13.1626   15.2791  -23.2885 H   0  0  0  0  0  0  0  0  0  0  0  0
  -13.7168   13.2161  -22.5664 H   0  0  0  0  0  0  0  0  0  0  0  0
  -12.2125   11.5273  -22.8272 H   0  0  0  0  0  0  0  0  0  0  0  0
  -13.2724   12.3841  -26.3651 H   0  0  0  0  0  0  0  0  0  0  0  0
   -9.0416    8.2954  -23.6665 H   0  0  0  0  0  0  0  0  0  0  0  0
   -9.8799    8.4808  -28.6718 H   0  0  0  0  0  0  0  0  0  0  0  0
  -11.3673    7.6588  -28.1711 H   0  0  0  0  0  0  0  0  0  0  0  0
  -14.9367   13.4696  -24.8235 H   0  0  0  0  0  0  0  0  0  0  0  0
  -12.5873   14.6783  -25.9863 H   0  0  0  0  0  0  0  0  0  0  0  0
  1  2  1  0
  2  3  1  0
  3  4  1  0
  4  5  1  0
  5  6  1  0
  5  7  1  0
  7  8  1  0
  8  9  2  0
  9 10  1  0
 10 11  2  0
 11 12  1  0
 12 13  2  0
 13 14  1  0
 14 15  2  0
 15 16  1  0
  4 17  1  0
  3 18  1  0
  6  2  1  0
 11  7  1  0
 15 10  1  0
  1 19  1  0
  1 20  1  0
  2 21  1  0
  3 22  1  0
  4 23  1  0
  5 24  1  0
  8 25  1  0
 13 26  1  0
 16 27  1  0
 16 28  1  0
 17 29  1  0
 18 30  1  0
M  RAD  1   1   2
M  END
$$$$

     RDKit          3D

 30 32  0  0  0  0  0  0  0  0999 V2000
  -14.1488   14.9021  -23.4719 C   0  0  0  0  0  3  0  0  0  0  0  0
  -13.1053   14.6532  -24.5324 C   0  0  0  0  0  0  0  0  0  0  0  0
  -11.7113   14.6626  -23.9703 C   0  0  0  0  0  0  0  0  0  0  0  0
  -11.2978   13.2105  -24.1549 C   0  0  0  0  0  0  0  0  0  0  0  0
  -12.1012   12.8828  -25.4170 C   0  0  0  0  0  0  0  0  0  0  0  0
  -13.3380   13.4159  -25.0819 O   0  0  0  0  0  0  0  0  0  0  0  0
  -12.1185   11.4892  -25.6793 N   0  0  0  0  0  0  0  0  0  0  0  0
  -13.1927   10.7378  -25.9508 C   0  0  0  0  0  0  0  0  0  0  0  0
  -12.7898    9.4652  -26.1391 N   0  0  0  0  0  0  0  0  0  0  0  0
  -11.4746    9.3959  -25.9914 C   0  0  0  0  0  0  0  0  0  0  0  0
  -11.0472   10.6853  -25.6985 C   0  0  0  0  0  0  0  0  0  0  0  0
   -9.7211   10.8464  -25.5065 N   0  0  0  0  0  0  0  0  0  0  0  0
   -8.8498    9.8247  -25.5908 C   0  0  0  0  0  0  0  0  0  0  0  0
   -9.2454    8.5660  -25.8741 N   0  0  0  0  0  0  0  0  0  0  0  0
  -10.5521    8.3580  -26.0725 C   0  0  0  0  0  0  0  0  0  0  0  0
  -10.9830    7.0396  -26.3713 N   0  0  0  0  0  0  0  0  0  0  0  0
  -11.7894   12.4205  -23.1099 O   0  0  0  0  0  0  0  0  0  0  0  0
  -11.6611   15.0523  -22.6432 O   0  0  0  0  0  0  0  0  0  0  0  0
  -14.6823   15.8580  -23.5979 H   0  0  0  0  0  0  0  0  0  0  0  0
  -13.7773   14.7316  -22.4488 H   0  0  0  0  0  0  0  0  0  0  0  0
  -13.2150   15.4453  -25.3096 H   0  0  0  0  0  0  0  0  0  0  0  0
  -11.0452   15.2598  -24.6216 H   0  0  0  0  0  0  0  0  0  0  0  0
  -10.2260   13.0939  -24.3105 H   0  0  0  0  0  0  0  0  0  0  0  0
  -11.6735   13.5001  -26.2279 H   0  0  0  0  0  0  0  0  0  0  0  0
  -14.2440   11.0605  -26.0189 H   0  0  0  0  0  0  0  0  0  0  0  0
   -7.7905   10.0039  -25.4280 H   0  0  0  0  0  0  0  0  0  0  0  0
  -11.7422    6.8389  -27.0300 H   0  0  0  0  0  0  0  0  0  0  0  0
  -10.4964    6.2532  -25.8921 H   0  0  0  0  0  0  0  0  0  0  0  0
  -12.7400   12.1518  -23.2624 H   0  0  0  0  0  0  0  0  0  0  0  0
  -11.0710   15.8617  -22.6104 H   0  0  0  0  0  0  0  0  0  0  0  0
  1  2  1  0
  2  3  1  0
  3  4  1  0
  4  5  1  0
  5  6  1  0
  5  7  1  0
  7  8  1  0
  8  9  2  0
  9 10  1  0
 10 11  2  0
 11 12  1  0
 12 13  2  0
 13 14  1  0
 14 15  2  0
 15 16  1  0
  4 17  1  0
  3 18  1  0
  6  2  1  0
 11  7  1  0
 15 10  1  0
  1 19  1  0
  1 20  1  0
  2 21  1  0
  3 22  1  0
  4 23  1  0
  5 24  1  0
  8 25  1  0
 13 26  1  0
 16 27  1  0
 16 28  1  0
 17 29  1  0
 18 30  1  0
M  RAD  1   1   2
M  END
$$$$

     RDKit          3D

 30 32  0  0  0  0  0  0  0  0999 V2000
  -11.3821   15.8896  -24.3321 C   0  0  0  0  0  3  0  0  0  0  0  0
  -11.6547   14.5512  -23.6567 C   0  0  0  0  0  0  0  0  0  0  0  0
  -13.1395   14.3298  -23.4657 C   0  0  0  0  0  0  0  0  0  0  0  0
  -13.3992   13.2726  -24.5495 C   0  0  0  0  0  0  0  0  0  0  0  0
  -12.0906   12.5036  -24.3975 C   0  0  0  0  0  0  0  0  0  0  0  0
  -11.1803   13.5553  -24.4703 O   0  0  0  0  0  0  0  0  0  0  0  0
  -11.9021   11.5002  -25.3729 N   0  0  0  0  0  0  0  0  0  0  0  0
  -12.3614   11.3838  -26.6162 C   0  0  0  0  0  0  0  0  0  0  0  0
  -11.9227   10.2455  -27.1945 N   0  0  0  0  0  0  0  0  0  0  0  0
  -11.1648    9.6126  -26.3091 C   0  0  0  0  0  0  0  0  0  0  0  0
  -11.1448   10.3844  -25.1712 C   0  0  0  0  0  0  0  0  0  0  0  0
  -10.4248    9.9233  -24.1318 N   0  0  0  0  0  0  0  0  0  0  0  0
   -9.7588    8.7497  -24.2264 C   0  0  0  0  0  0  0  0  0  0  0  0
   -9.7893    8.0124  -25.3398 N   0  0  0  0  0  0  0  0  0  0  0  0
  -10.4909    8.4194  -26.4125 C   0  0  0  0  0  0  0  0  0  0  0  0
  -10.5349    7.6510  -27.6019 N   0  0  0  0  0  0  0  0  0  0  0  0
  -13.3691   13.9318  -25.7551 O   0  0  0  0  0  0  0  0  0  0  0  0
  -13.4170   13.6919  -22.2528 O   0  0  0  0  0  0  0  0  0  0  0  0
  -10.7166   15.7774  -25.2163 H   0  0  0  0  0  0  0  0  0  0  0  0
  -12.3320   16.4138  -24.5771 H   0  0  0  0  0  0  0  0  0  0  0  0
  -11.1001   14.5622  -22.6925 H   0  0  0  0  0  0  0  0  0  0  0  0
  -13.7365   15.2326  -23.6296 H   0  0  0  0  0  0  0  0  0  0  0  0
  -14.2786   12.6758  -24.3523 H   0  0  0  0  0  0  0  0  0  0  0  0
  -12.0164   12.1115  -23.3416 H   0  0  0  0  0  0  0  0  0  0  0  0
  -12.9979   12.0784  -27.1293 H   0  0  0  0  0  0  0  0  0  0  0  0
   -9.1657    8.3517  -23.3958 H   0  0  0  0  0  0  0  0  0  0  0  0
   -9.8862    6.8429  -27.7328 H   0  0  0  0  0  0  0  0  0  0  0  0
  -11.2301    7.9127  -28.3410 H   0  0  0  0  0  0  0  0  0  0  0  0
  -12.4182   14.2325  -25.9076 H   0  0  0  0  0  0  0  0  0  0  0  0
  -12.6419   13.6954  -21.6347 H   0  0  0  0  0  0  0  0  0  0  0  0
  1  2  1  0
  2  3  1  0
  3  4  1  0
  4  5  1  0
  5  6  1  0
  5  7  1  0
  7  8  1  0
  8  9  2  0
  9 10  1  0
 10 11  2  0
 11 12  1  0
 12 13  2  0
 13 14  1  0
 14 15  2  0
 15 16  1  0
  4 17  1  0
  3 18  1  0
  6  2  1  0
 11  7  1  0
 15 10  1  0
  1 19  1  0
  1 20  1  0
  2 21  1  0
  3 22  1  0
  4 23  1  0
  5 24  1  0
  8 25  1  0
 13 26  1  0
 16 27  1  0
 16 28  1  0
 17 29  1  0
 18 30  1  0
M  RAD  1   1   2
M  END
$$$$

     RDKit          3D

 30 32  0  0  0  0  0  0  0  0999 V2000
  -14.2403   14.3601  -25.3914 C   0  0  0  0  0  3  0  0  0  0  0  0
  -12.7865   14.7131  -25.0797 C   0  0  0  0  0  0  0  0  0  0  0  0
  -12.6352   14.6678  -23.5730 C   0  0  0  0  0  0  0  0  0  0  0  0
  -12.4093   13.1616  -23.3919 C   0  0  0  0  0  0  0  0  0  0  0  0
  -11.6494   12.8332  -24.6436 C   0  0  0  0  0  0  0  0  0  0  0  0
  -12.0021   13.7278  -25.6145 O   0  0  0  0  0  0  0  0  0  0  0  0
  -11.8411   11.4398  -25.0499 N   0  0  0  0  0  0  0  0  0  0  0  0
  -12.9970   10.7539  -25.0220 C   0  0  0  0  0  0  0  0  0  0  0  0
  -12.8036    9.4986  -25.4665 N   0  0  0  0  0  0  0  0  0  0  0  0
  -11.5229    9.3442  -25.7910 C   0  0  0  0  0  0  0  0  0  0  0  0
  -10.9199   10.5788  -25.5241 C   0  0  0  0  0  0  0  0  0  0  0  0
   -9.6121   10.7155  -25.7608 N   0  0  0  0  0  0  0  0  0  0  0  0
   -8.8673    9.7095  -26.2437 C   0  0  0  0  0  0  0  0  0  0  0  0
   -9.4695    8.5327  -26.4922 N   0  0  0  0  0  0  0  0  0  0  0  0
  -10.7726    8.2934  -26.2894 C   0  0  0  0  0  0  0  0  0  0  0  0
  -11.4085    7.0545  -26.5507 N   0  0  0  0  0  0  0  0  0  0  0  0
  -11.7063   12.9003  -22.2305 O   0  0  0  0  0  0  0  0  0  0  0  0
  -11.4835   15.3232  -23.1412 O   0  0  0  0  0  0  0  0  0  0  0  0
  -14.4818   14.6550  -26.4365 H   0  0  0  0  0  0  0  0  0  0  0  0
  -14.9375   14.7596  -24.6453 H   0  0  0  0  0  0  0  0  0  0  0  0
  -12.5539   15.7231  -25.4764 H   0  0  0  0  0  0  0  0  0  0  0  0
  -13.5379   15.0086  -23.0488 H   0  0  0  0  0  0  0  0  0  0  0  0
  -13.4176   12.7015  -23.4141 H   0  0  0  0  0  0  0  0  0  0  0  0
  -10.5614   13.0184  -24.4052 H   0  0  0  0  0  0  0  0  0  0  0  0
  -13.9479   11.1919  -24.6774 H   0  0  0  0  0  0  0  0  0  0  0  0
   -7.7850    9.8404  -26.4339 H   0  0  0  0  0  0  0  0  0  0  0  0
  -11.7971    6.4365  -25.7826 H   0  0  0  0  0  0  0  0  0  0  0  0
  -11.5246    6.6907  -27.5154 H   0  0  0  0  0  0  0  0  0  0  0  0
  -11.7567   11.9384  -22.0588 H   0  0  0  0  0  0  0  0  0  0  0  0
  -10.7838   15.3210  -23.8328 H   0  0  0  0  0  0  0  0  0  0  0  0
  1  2  1  0
  2  3  1  0
  3  4  1  0
  4  5  1  0
  5  6  1  0
  5  7  1  0
  7  8  1  0
  8  9  2  0
  9 10  1  0
 10 11  2  0
 11 12  1  0
 12 13  2  0
 13 14  1  0
 14 15  2  0
 15 16  1  0
  4 17  1  0
  3 18  1  0
  6  2  1  0
 11  7  1  0
 15 10  1  0
  1 19  1  0
  1 20  1  0
  2 21  1  0
  3 22  1  0
  4 23  1  0
  5 24  1  0
  8 25  1  0
 13 26  1  0
 16 27  1  0
 16 28  1  0
 17 29  1  0
 18 30  1  0
M  RAD  1   1   2
M  END
$$$$

     RDKit          3D

 30 32  0  0  0  0  0  0  0  0999 V2000
  -13.8364   14.0766  -22.1545 C   0  0  0  0  0  3  0  0  0  0  0  0
  -13.4724   14.0287  -23.6089 C   0  0  0  0  0  0  0  0  0  0  0  0
  -12.1890   14.7485  -23.9209 C   0  0  0  0  0  0  0  0  0  0  0  0
  -11.6184   13.8306  -25.0125 C   0  0  0  0  0  0  0  0  0  0  0  0
  -12.0870   12.4839  -24.4452 C   0  0  0  0  0  0  0  0  0  0  0  0
  -13.3768   12.7465  -24.0708 O   0  0  0  0  0  0  0  0  0  0  0  0
  -11.9391   11.4296  -25.3955 N   0  0  0  0  0  0  0  0  0  0  0  0
  -12.5501   11.3482  -26.5674 C   0  0  0  0  0  0  0  0  0  0  0  0
  -12.1363   10.1959  -27.1609 N   0  0  0  0  0  0  0  0  0  0  0  0
  -11.2689    9.5827  -26.3347 C   0  0  0  0  0  0  0  0  0  0  0  0
  -11.1336   10.3569  -25.2064 C   0  0  0  0  0  0  0  0  0  0  0  0
  -10.3144    9.9612  -24.2155 N   0  0  0  0  0  0  0  0  0  0  0  0
   -9.6148    8.8150  -24.2978 C   0  0  0  0  0  0  0  0  0  0  0  0
   -9.7399    8.0506  -25.3967 N   0  0  0  0  0  0  0  0  0  0  0  0
  -10.5445    8.3938  -26.4224 C   0  0  0  0  0  0  0  0  0  0  0  0
  -10.6854    7.6081  -27.5738 N   0  0  0  0  0  0  0  0  0  0  0  0
  -10.2547   13.9149  -25.1016 O   0  0  0  0  0  0  0  0  0  0  0  0
  -12.3654   16.0364  -24.3704 O   0  0  0  0  0  0  0  0  0  0  0  0
  -14.4312   14.9762  -21.8948 H   0  0  0  0  0  0  0  0  0  0  0  0
  -12.9749   13.9264  -21.4770 H   0  0  0  0  0  0  0  0  0  0  0  0
  -14.3103   14.5381  -24.1637 H   0  0  0  0  0  0  0  0  0  0  0  0
  -11.4528   14.6771  -23.0724 H   0  0  0  0  0  0  0  0  0  0  0  0
  -12.1624   14.0841  -25.9395 H   0  0  0  0  0  0  0  0  0  0  0  0
  -11.4893   12.3253  -23.5194 H   0  0  0  0  0  0  0  0  0  0  0  0
  -13.2458   12.0679  -26.9681 H   0  0  0  0  0  0  0  0  0  0  0  0
   -8.9572    8.4793  -23.5230 H   0  0  0  0  0  0  0  0  0  0  0  0
   -9.8429    7.3582  -28.1269 H   0  0  0  0  0  0  0  0  0  0  0  0
  -11.6047    7.2597  -27.9037 H   0  0  0  0  0  0  0  0  0  0  0  0
  -10.0458   14.2983  -26.0126 H   0  0  0  0  0  0  0  0  0  0  0  0
  -11.8154   16.6496  -23.7923 H   0  0  0  0  0  0  0  0  0  0  0  0
  1  2  1  0
  2  3  1  0
  3  4  1  0
  4  5  1  0
  5  6  1  0
  5  7  1  0
  7  8  1  0
  8  9  2  0
  9 10  1  0
 10 11  2  0
 11 12  1  0
 12 13  2  0
 13 14  1  0
 14 15  2  0
 15 16  1  0
  4 17  1  0
  3 18  1  0
  6  2  1  0
 11  7  1  0
 15 10  1  0
  1 19  1  0
  1 20  1  0
  2 21  1  0
  3 22  1  0
  4 23  1  0
  5 24  1  0
  8 25  1  0
 13 26  1  0
 16 27  1  0
 16 28  1  0
 17 29  1  0
 18 30  1  0
M  RAD  1   1   2
M  END
$$$$

     RDKit          3D

 30 32  0  0  0  0  0  0  0  0999 V2000
  -11.5024   14.2664  -21.9876 C   0  0  0  0  0  3  0  0  0  0  0  0
  -11.6222   14.3113  -23.4924 C   0  0  0  0  0  0  0  0  0  0  0  0
  -13.0780   14.4097  -23.8393 C   0  0  0  0  0  0  0  0  0  0  0  0
  -13.2745   13.1687  -24.7146 C   0  0  0  0  0  0  0  0  0  0  0  0
  -11.8514   13.0465  -25.2741 C   0  0  0  0  0  0  0  0  0  0  0  0
  -11.1119   13.1865  -24.1048 O   0  0  0  0  0  0  0  0  0  0  0  0
  -11.6396   11.8142  -25.9545 N   0  0  0  0  0  0  0  0  0  0  0  0
  -11.9061   11.5795  -27.2476 C   0  0  0  0  0  0  0  0  0  0  0  0
  -11.5816   10.2989  -27.5587 N   0  0  0  0  0  0  0  0  0  0  0  0
  -11.1047    9.7153  -26.4529 C   0  0  0  0  0  0  0  0  0  0  0  0
  -11.1403   10.6624  -25.4477 C   0  0  0  0  0  0  0  0  0  0  0  0
  -10.7175   10.3376  -24.2357 N   0  0  0  0  0  0  0  0  0  0  0  0
  -10.2551    9.1031  -23.9683 C   0  0  0  0  0  0  0  0  0  0  0  0
  -10.2216    8.1835  -24.9488 N   0  0  0  0  0  0  0  0  0  0  0  0
  -10.6329    8.4361  -26.2039 C   0  0  0  0  0  0  0  0  0  0  0  0
  -10.5998    7.4675  -27.2445 N   0  0  0  0  0  0  0  0  0  0  0  0
  -13.5839   12.1063  -23.8986 O   0  0  0  0  0  0  0  0  0  0  0  0
  -13.3036   15.5146  -24.6819 O   0  0  0  0  0  0  0  0  0  0  0  0
  -11.3962   13.2620  -21.5782 H   0  0  0  0  0  0  0  0  0  0  0  0
  -12.3290   14.8608  -21.5172 H   0  0  0  0  0  0  0  0  0  0  0  0
  -11.0338   15.1884  -23.8766 H   0  0  0  0  0  0  0  0  0  0  0  0
  -13.7504   14.4118  -22.9713 H   0  0  0  0  0  0  0  0  0  0  0  0
  -14.0035   13.3935  -25.4919 H   0  0  0  0  0  0  0  0  0  0  0  0
  -11.7335   13.9397  -25.9437 H   0  0  0  0  0  0  0  0  0  0  0  0
  -12.3169   12.3190  -27.9152 H   0  0  0  0  0  0  0  0  0  0  0  0
   -9.9179    8.8601  -22.9825 H   0  0  0  0  0  0  0  0  0  0  0  0
  -10.1992    7.6601  -28.1930 H   0  0  0  0  0  0  0  0  0  0  0  0
  -10.9821    6.5073  -27.0983 H   0  0  0  0  0  0  0  0  0  0  0  0
  -14.5426   11.8940  -23.9523 H   0  0  0  0  0  0  0  0  0  0  0  0
  -12.4427   15.8095  -25.0696 H   0  0  0  0  0  0  0  0  0  0  0  0
  1  2  1  0
  2  3  1  0
  3  4  1  0
  4  5  1  0
  5  6  1  0
  5  7  1  0
  7  8  1  0
  8  9  2  0
  9 10  1  0
 10 11  2  0
 11 12  1  0
 12 13  2  0
 13 14  1  0
 14 15  2  0
 15 16  1  0
  4 17  1  0
  3 18  1  0
  6  2  1  0
 11  7  1  0
 15 10  1  0
  1 19  1  0
  1 20  1  0
  2 21  1  0
  3 22  1  0
  4 23  1  0
  5 24  1  0
  8 25  1  0
 13 26  1  0
 16 27  1  0
 16 28  1  0
 17 29  1  0
 18 30  1  0
M  RAD  1   1   2
M  END
$$$$
