7o1o
  PyMOL3.1          3D                             0

 45 47  0  0  0  0  0  0  0  0999 V2000
  -17.8650   17.0030  -26.0420 N   0  0  0  0  0  0  0  0  0  0  0  0
  -17.0750   17.5690  -24.9280 C   0  0  0  0  0  0  0  0  0  0  0  0
  -15.6730   17.8900  -25.4320 C   0  0  0  0  0  0  0  0  0  0  0  0
  -14.9830   18.6830  -24.8610 O   0  0  0  0  0  0  0  0  0  0  0  0
  -17.0700   16.7180  -23.6870 C   0  0  0  0  0  0  0  0  0  0  0  0
  -17.1890   15.2420  -23.8470 C   0  0  0  0  0  0  0  0  0  0  0  0
  -15.7790   14.4120  -24.5700 S   0  0  0  0  0  0  0  0  0  0  0  0
  -14.6720   14.4170  -23.1230 C   0  0  0  0  0  0  0  0  0  0  0  0
  -13.2230   14.0580  -23.4380 C   0  0  0  0  0  0  0  0  0  0  0  0
  -13.1000   12.6910  -23.6980 O   0  0  0  0  0  0  0  0  0  0  0  0
  -12.5520   14.7190  -24.6160 C   0  0  0  0  0  0  0  0  0  0  0  0
  -12.1140   16.0190  -24.2430 O   0  0  0  0  0  0  0  0  0  0  0  0
  -11.3750   13.7660  -24.8920 C   0  0  0  0  0  0  0  0  0  0  0  0
  -10.1690   14.2070  -24.3230 O   0  0  0  0  0  0  0  0  0  0  0  0
  -11.8150   12.4560  -24.2150 C   0  0  0  0  0  0  0  0  0  0  0  0
  -15.3540   17.3080  -26.5380 O   0  0  0  0  0  0  0  0  0  0  0  0
   -9.6160    8.0870  -25.7320 N   0  0  0  0  0  0  0  0  0  0  0  0
   -9.3550    8.8430  -24.6580 C   0  0  0  0  0  0  0  0  0  0  0  0
  -10.0580    9.9510  -24.3510 N   0  0  0  0  0  0  0  0  0  0  0  0
  -11.0560   10.2890  -25.1860 C   0  0  0  0  0  0  0  0  0  0  0  0
  -11.3890    9.5150  -26.2980 C   0  0  0  0  0  0  0  0  0  0  0  0
  -10.6360    8.3770  -26.5630 C   0  0  0  0  0  0  0  0  0  0  0  0
  -10.8790    7.5680  -27.6080 N   0  0  0  0  0  0  0  0  0  0  0  0
  -12.4560   10.1190  -26.9090 N   0  0  0  0  0  0  0  0  0  0  0  0
  -12.7560   11.2130  -26.2520 C   0  0  0  0  0  0  0  0  0  0  0  0
  -11.9060   11.3130  -25.1510 N   0  0  0  0  0  0  0  0  0  0  0  0
  -18.7020   16.9640  -25.8620 H   0  0  0  0  0  0  0  0  0  0  0  0
  -17.9370   17.5200  -26.7250 H   0  0  0  0  0  0  0  0  0  0  0  0
  -11.6400    7.7770  -28.2460 H   0  0  0  0  0  0  0  0  0  0  0  0
  -10.3000    6.7470  -27.7600 H   0  0  0  0  0  0  0  0  0  0  0  0
  -17.4990   18.3960  -24.6170 H   0  0  0  0  0  0  0  0  0  0  0  0
  -17.8940   17.0540  -23.0580 H   0  0  0  0  0  0  0  0  0  0  0  0
  -16.1390   16.9220  -23.1560 H   0  0  0  0  0  0  0  0  0  0  0  0
  -18.0600   15.0380  -24.4700 H   0  0  0  0  0  0  0  0  0  0  0  0
  -17.3710   14.8080  -22.8640 H   0  0  0  0  0  0  0  0  0  0  0  0
   -9.8110   13.5090  -23.7350 H   0  0  0  0  0  0  0  0  0  0  0  0
  -11.1350   16.0580  -24.2860 H   0  0  0  0  0  0  0  0  0  0  0  0
   -8.5360    8.5480  -24.0010 H   0  0  0  0  0  0  0  0  0  0  0  0
  -13.5370   11.9240  -26.5200 H   0  0  0  0  0  0  0  0  0  0  0  0
  -11.0670   12.2040  -23.4640 H   0  0  0  0  0  0  0  0  0  0  0  0
  -11.1710   13.6820  -25.9600 H   0  0  0  0  0  0  0  0  0  0  0  0
  -13.1870   14.8690  -25.4890 H   0  0  0  0  0  0  0  0  0  0  0  0
  -12.7270   14.4130  -22.5350 H   0  0  0  0  0  0  0  0  0  0  0  0
  -15.0550   13.7080  -22.3900 H   0  0  0  0  0  0  0  0  0  0  0  0
  -14.6940   15.4100  -22.6730 H   0  0  0  0  0  0  0  0  0  0  0  0
  1  2  1  0  0  0  0
  2  3  1  0  0  0  0
  3  4  2  0  0  0  0
  2  5  1  0  0  0  0
  5  6  1  0  0  0  0
  6  7  1  0  0  0  0
  7  8  1  0  0  0  0
  8  9  1  0  0  0  0
  9 10  1  0  0  0  0
  9 11  1  0  0  0  0
 11 12  1  0  0  0  0
 11 13  1  0  0  0  0
 13 14  1  0  0  0  0
 10 15  1  0  0  0  0
 13 15  1  0  0  0  0
  3 16  1  0  0  0  0
 17 18  1  0  0  0  0
 18 19  2  0  0  0  0
 19 20  1  0  0  0  0
 20 21  2  0  0  0  0
 17 22  2  0  0  0  0
 21 22  1  0  0  0  0
 22 23  1  0  0  0  0
 21 24  1  0  0  0  0
 24 25  2  0  0  0  0
 15 26  1  0  0  0  0
 20 26  1  0  0  0  0
 25 26  1  0  0  0  0
  1 27  1  0  0  0  0
  1 28  1  0  0  0  0
 23 29  1  0  0  0  0
 23 30  1  0  0  0  0
  2 31  1  0  0  0  0
  5 32  1  0  0  0  0
  5 33  1  0  0  0  0
  6 34  1  0  0  0  0
  6 35  1  0  0  0  0
 14 36  1  0  0  0  0
 12 37  1  0  0  0  0
 18 38  1  0  0  0  0
 25 39  1  0  0  0  0
 15 40  1  0  0  0  0
 13 41  1  0  0  0  0
 11 42  1  0  0  0  0
  9 43  1  0  0  0  0
  8 44  1  0  0  0  0
  8 45  1  0  0  0  0
M  END
$$$$
